<routes xmlns:xsi="http://www.w3.org/2001/XMLSchema-instance" xsi:noNamespaceSchemaLocation="http://sumo.dlr.de/xsd/routes_file.xsd">
	<vType color="green" id="bus" vClass="bus" />
	<vType color="red" id="default_017" vClass="passenger" />
    <vType color="blue" id="random_017" vClass="passenger" />
	<vType color="red" id="default_016" vClass="passenger" />
    <vType color="blue" id="random_016" vClass="passenger" />
	<vType color="red" id="default_015" vClass="passenger" />
    <vType color="blue" id="random_015" vClass="passenger" />
	<vType color="red" id="default_014" vClass="passenger" />
    <vType color="blue" id="random_014" vClass="passenger" />
	<vType color="red" id="default_013" vClass="passenger" />
    <vType color="blue" id="random_013" vClass="passenger" />
    <vType color="red" id="default_012" vClass="passenger" />
    <vType color="blue" id="random_012" vClass="passenger" />
	<vType color="red" id="default_011" vClass="passenger" />
    <vType color="blue" id="random_011" vClass="passenger" />
	<vType color="red" id="default_010" vClass="passenger" />
    <vType color="blue" id="random_010" vClass="passenger" />
	<vType color="red" id="default_009" vClass="passenger" />
    <vType color="blue" id="random_009" vClass="passenger" />
	<vType color="red" id="default_008" vClass="passenger" />
    <vType color="blue" id="random_008" vClass="passenger" />
	<vType color="red" id="default_007" vClass="passenger" />
    <vType color="blue" id="random_007" vClass="passenger" />
	<vType color="red" id="default_006" vClass="passenger" />
    <vType color="blue" id="random_006" vClass="passenger" />
	<vType color="red" id="default_005" vClass="passenger" />
    <vType color="blue" id="random_005" vClass="passenger" />
	<vType color="red" id="default_004" vClass="passenger" />
    <vType color="blue" id="random_004" vClass="passenger" />
	<vType color="red" id="default_003" vClass="passenger" />
    <vType color="blue" id="random_003" vClass="passenger" />
	<vType color="red" id="default_022" vClass="passenger" />
    <vType color="blue" id="random_022" vClass="passenger" />
	<vType color="red" id="default_021" vClass="passenger" />
    <vType color="blue" id="random_021" vClass="passenger" />
	<vType color="red" id="default_020" vClass="passenger" />
    <vType color="blue" id="random_020" vClass="passenger" />
	<vType color="red" id="default_019" vClass="passenger" />
    <vType color="blue" id="random_019" vClass="passenger" />
	<vType color="red" id="default_018" vClass="passenger" />
    <vType color="blue" id="random_018" vClass="passenger" />
	<vType color="red" id="default_002" vClass="passenger" />
    <vType color="blue" id="random_002" vClass="passenger" />
	<vType color="red" id="default_001" vClass="passenger" />
    <vType color="blue" id="random_001" vClass="passenger" />
	<trip depart="57600.00" departSpeed="max" from="201089423#0" id="h2831c1:1" speedFactor="0.8600581357454181" to="-315358244" type="default_016" />
	<trip depart="57600.30" departSpeed="max" from="124812856#0" id="carIn107084:1" speedFactor="0.8932608601308756" to="-128361102#1" type="default_016" />
	<trip depart="57602.60" departSpeed="max" from="128361109#1" id="carIn80064:1" speedFactor="0.8477716735621761" to="-315358254#1" type="default_016" />
	<trip depart="57604.80" departSpeed="max" from="124812856#0" id="randUni10474:1" speedFactor="0.8425536030373647" to="306240162#0" type="random_016" />
	<trip depart="57605.10" departSpeed="max" from="315358254#0" id="carIn60260:1" speedFactor="0.8510034040443658" to="399835085#1" type="default_016" />
	<trip depart="57605.20" departSpeed="max" from="315358244" id="randUni14624:1" speedFactor="0.8232121876695052" to="-25149001#4" type="random_016" />
	<trip depart="57605.50" departSpeed="max" from="124812856#0" id="carIn77943:1" speedFactor="0.8308369291671143" to="-128361102#1" type="default_016" />
	<trip depart="57605.80" departSpeed="max" from="10425609#0" id="carIn28951:1" speedFactor="0.8591924990395916" to="-128361102#1" type="default_016" />
	<trip depart="57608.50" departSpeed="max" from="124812856#0" id="carIn81046:1" speedFactor="0.8299432042881802" to="-128361102#1" type="default_016" />
	<trip depart="57611.50" departSpeed="max" from="24608844" id="h15454c2:3" speedFactor="0.9274037430692124" to="32978638#0" type="default_016" />
	<trip depart="57611.60" departSpeed="max" from="315358244" id="h12244c1:3" speedFactor="0.8837368116182189" to="386687235" type="default_016" />
	<trip depart="57611.60" departSpeed="max" from="315358250#0" id="S5R_frequency1.2" speedFactor="0.8935657322908204" to="386687235" type="bus" />
	<trip depart="57612.30" departSpeed="max" from="-306240162#1" id="carIn48184:1" speedFactor="0.8685343000398298" to="386687235" type="default_016" />
	<trip depart="57612.90" departSpeed="max" from="124812856#0" id="carIn77438:1" speedFactor="0.8537277129672802" to="-128361102#1" type="default_016" />
	<trip depart="57613.90" departSpeed="max" from="-306240162#1" id="carIn22761:1" speedFactor="0.9474066049175726" to="399835085#1" type="default_016" />
	<trip depart="57615.50" departSpeed="max" from="124812856#0" id="h19804c1:3" speedFactor="0.9084830030518832" to="-128361102#1" type="default_016" />
	<trip depart="57615.50" departSpeed="max" from="-306240162#1" id="carIn82220:1" speedFactor="0.9596550202117735" to="386687235" type="default_016" />
	<trip depart="57616.20" departSpeed="max" from="128361102#0" id="carIn86816:1" speedFactor="0.9942870223308351" to="201956811#0" type="default_016" />
	<trip depart="57617.20" departSpeed="max" from="-306240162#1" id="carIn462:1" speedFactor="0.818266849468587" to="386687235" type="default_016" />
	<trip depart="57618.50" departSpeed="max" from="124812856#0" id="carIn767:1" speedFactor="0.8256078976270069" to="306240162#0" type="default_016" />
	<trip depart="57621.10" departSpeed="max" from="124812856#0" id="carIn107842:1" speedFactor="0.9013716813560084" to="-128361102#1" type="default_016" />
	<trip depart="57621.60" departSpeed="max" from="266565295#5" id="h645c1:1" speedFactor="0.846325345699074" to="-315358244" type="default_016" />
	<trip depart="57622.20" departSpeed="max" from="124812856#0" id="h15382c1:3" speedFactor="0.9059072464037847" to="-128361102#1" type="default_016" />
	<trip depart="57623.70" departSpeed="max" from="124812856#0" id="carIn3969:1" speedFactor="0.9352070250247152" to="-128361102#1" type="default_016" />
	<trip depart="57623.90" departSpeed="max" from="124812856#0" id="carIn56649:1" speedFactor="0.8582071340277786" to="-128361102#1" type="default_016" />
	<trip depart="57625.00" departSpeed="max" from="201201950#1" id="h3688c1:1" speedFactor="0.8628009853708751" to="32978638#0" type="default_016" />
	<trip depart="57625.50" departSpeed="max" from="124812856#0" id="carIn38625:1" speedFactor="0.995719127999244" to="306240162#0" type="default_016" />
	<trip depart="57626.90" departSpeed="max" from="-306240162#1" id="carIn116184:1" speedFactor="0.8115163410393453" to="386687235" type="default_016" />
	<trip depart="57627.20" departSpeed="max" from="124812856#0" id="carIn17767:1" speedFactor="0.8807771640683163" to="-128361102#1" type="default_016" />
	<trip depart="57628.40" departSpeed="max" from="124812856#0" id="carIn64859:1" speedFactor="0.8709070387034131" to="306240162#0" type="default_016" />
	<trip depart="57628.40" departSpeed="max" from="-306240162#1" id="carIn31257:1" speedFactor="0.9840020796274175" to="386687235" type="default_016" />
	<trip depart="57628.90" departSpeed="max" from="124812856#0" id="carIn48979:1" speedFactor="0.8496861234160631" to="306240162#0" type="default_016" />
	<trip depart="57630.30" departSpeed="max" from="315358244" id="h9563c2:5" speedFactor="0.8723793974479045" to="386687235" type="default_016" />
	<trip depart="57630.60" departSpeed="max" from="124812856#0" id="carIn88932:1" speedFactor="0.9349606665459855" to="-128361102#1" type="default_016" />
	<trip depart="57630.70" departSpeed="max" from="124812856#0" id="h15353c2:1" speedFactor="0.9609329096920884" to="306240162#0" type="default_016" />
	<trip depart="57631.00" departSpeed="max" from="201201953#4" id="h5170c2:1" speedFactor="0.8394405629988991" to="-266565295#5" type="default_016" />
	<trip depart="57632.30" departSpeed="max" from="124812856#0" id="carIn44740:1" speedFactor="0.8076700215145364" to="-128361102#1" type="default_016" />
	<trip depart="57633.00" departSpeed="max" from="124812856#0" id="randUni29093:1" speedFactor="0.8064444717161016" to="201238729#3" type="random_016" />
	<trip depart="57633.50" departSpeed="max" from="10425609#0" id="h20540c1:1" speedFactor="0.9685286152536987" to="-128361102#1" type="default_016" />
	<trip depart="57633.90" departSpeed="max" from="124812856#0" id="carIn64490:1" speedFactor="0.8244967800714839" to="306240162#0" type="default_016" />
	<trip depart="57635.00" departSpeed="max" from="399835085#1" id="h13311c1:3" speedFactor="0.9912121992305168" to="32978638#0" type="default_016" />
	<trip depart="57635.60" departSpeed="max" from="124812856#0" id="carIn13362:1" speedFactor="0.8388217349913131" to="306240162#0" type="default_016" />
	<trip depart="57637.10" departSpeed="max" from="124812856#0" id="carIn99385:1" speedFactor="0.874097865635317" to="-128361102#1" type="default_016" />
	<trip depart="57637.50" departSpeed="max" from="-306240162#1" id="carIn101568:1" speedFactor="0.9735397542276601" to="386687235" type="default_016" />
	<trip depart="57637.70" departSpeed="max" from="124812856#0" id="carIn11547:1" speedFactor="0.9307460076421301" to="306240162#0" type="default_016" />
	<trip depart="57639.20" departSpeed="max" from="272042143" id="carIn53971:1" speedFactor="0.8119681005453038" to="24634414#1" type="default_016" />
	<trip depart="57640.20" departSpeed="max" from="124812856#0" id="carIn25314:1" speedFactor="0.9580522636359194" to="306240162#0" type="default_016" />
	<trip depart="57640.80" departSpeed="max" from="-306240162#1" id="carIn23683:1" speedFactor="0.8111456402255252" to="201956820" type="default_016" />
	<trip depart="57642.60" departSpeed="max" from="128361102#0" id="carIn102915:1" speedFactor="0.8194806109641093" to="201956811#0" type="default_016" />
	<trip depart="57643.00" departSpeed="max" from="124812856#0" id="carIn32621:1" speedFactor="0.8526073892694662" to="-128361102#1" type="default_016" />
	<trip depart="57644.80" departSpeed="max" from="128361102#0" id="randUni33724:1" speedFactor="0.9964316816698335" to="201956811#0" type="random_016" />
	<trip depart="57644.80" departSpeed="max" from="-306240162#1" id="carIn96510:1" speedFactor="0.9826351748222198" to="201956820" type="default_016" />
	<trip depart="57646.50" departSpeed="max" from="24599188#0.94" id="carIn12152:1" speedFactor="0.8718616259971956" to="-315358254#1" type="default_016" />
	<trip depart="57646.70" departSpeed="max" from="386687232#0" id="carIn121703:1" speedFactor="0.8876242990544462" to="-315358244" type="default_016" />
	<trip depart="57650.70" departSpeed="max" from="128361102#0" id="carIn50326:1" speedFactor="0.8035569075793544" to="18809673#0" type="default_016" />
	<trip depart="57655.20" departSpeed="max" from="266565295#5" id="h3568c1:3" speedFactor="0.856944379912968" to="-24634415" type="default_016" />
	<trip depart="57656.00" departSpeed="max" from="22716069#0" id="h3326c1:2" speedFactor="0.9444369474164326" to="24634517#13" type="default_016" />
	<trip depart="57657.20" departSpeed="max" from="266565295#5" id="carIn106665:1" speedFactor="0.9328822459822625" to="201238729#3" type="default_016" />
	<trip depart="57657.30" departSpeed="max" from="-306240162#1" id="carIn61442:1" speedFactor="0.9778877925861621" to="386687235" type="default_016" />
	<trip depart="57658.00" departSpeed="max" from="24634507" id="h3154c1:1" speedFactor="0.886043296300109" to="-266565295#5" type="default_016" />
	<trip depart="57659.90" departSpeed="max" from="315358254#0" id="h7181c1:1" speedFactor="0.897342097373923" to="306240162#0" type="default_016" />
	<trip depart="57660.10" departSpeed="max" from="128361109#1" id="carIn12858:1" speedFactor="0.9347737783975637" to="399835085#1" type="default_016" />
	<trip depart="57660.50" departSpeed="max" from="315358254#0" id="h16072c2:3" speedFactor="0.8283112007804098" to="386687235" type="default_016" />
	<trip depart="57660.60" departSpeed="max" from="399835085#1" id="h21908c1:3" speedFactor="0.8100954676381478" to="201956820" type="default_016" />
	<trip depart="57661.70" departSpeed="max" from="272042143" id="h17600c1:1" speedFactor="0.9129718413013064" to="201238729#3" type="default_016" />
	<trip depart="57663.40" departSpeed="max" from="128361102#0" id="carIn100288:1" speedFactor="0.8421517950485782" to="201956811#0" type="default_016" />
	<trip depart="57663.50" departSpeed="max" from="272042143" id="h11737c1:1" speedFactor="0.9368063131551935" to="-315358254#1" type="default_016" />
	<trip depart="57664.00" departSpeed="max" from="224892339#0" id="h5216c1:1" speedFactor="0.8760171949173737" to="386687235" type="default_016" />
	<trip depart="57665.40" departSpeed="max" from="128361102#0" id="carIn29531:1" speedFactor="0.8037002661986066" to="201956811#0" type="default_016" />
	<trip depart="57666.90" departSpeed="max" from="128361102#0" id="carIn2912:1" speedFactor="0.9896978504198062" to="201956811#0" type="default_016" />
	<trip depart="57668.50" departSpeed="max" from="128361102#0" id="carIn49437:1" speedFactor="0.8339600897299746" to="201956811#0" type="default_016" />
	<trip depart="57669.00" departSpeed="max" from="399835085#1" id="h5979c1:5" speedFactor="0.8319587434895991" to="-315358254#1" type="default_016" />
	<trip depart="57669.40" departSpeed="max" from="315358242#0" id="h7097c1:1" speedFactor="0.8430164463231209" to="306240162#0" type="default_016" />
	<trip depart="57672.30" departSpeed="max" from="128361109#1" id="carIn85747:1" speedFactor="0.9909666847347116" to="386687235" type="default_016" />
	<trip depart="57672.50" departSpeed="max" from="-447569998#1" id="carIn27009:1" speedFactor="0.9085955837875437" to="-26677539" type="default_015" />
	<trip depart="57673.30" departSpeed="max" from="-18809673#6" id="50R_frequency3.17" speedFactor="0.8096709430939679" to="201956811#0" type="bus" />
	<trip depart="57673.90" departSpeed="max" from="128361109#1" id="carIn7949:1" speedFactor="0.8530689781926918" to="386687235" type="default_016" />
	<trip depart="57674.00" departSpeed="max" from="272042143" id="carIn126288:1" speedFactor="0.9496987063479817" to="-315358254#1" type="default_016" />
	<trip depart="57674.00" departSpeed="max" from="128361102#0" id="h18601c1:3" speedFactor="0.9234003923140973" to="201956811#0" type="default_016" />
	<trip depart="57675.40" departSpeed="max" from="10425609#0" id="carIn12775:1" speedFactor="0.9984103799989757" to="18809673#0" type="default_016" />
	<trip depart="57675.60" departSpeed="max" from="128361109#1" id="carIn75660:1" speedFactor="0.9709883435583294" to="386687235" type="default_016" />
	<trip depart="57677.10" departSpeed="max" from="128361102#0" id="h18996c2:1" speedFactor="0.9940073288168282" to="201956820" type="default_016" />
	<trip depart="57677.40" departSpeed="max" from="128361109#1" id="carIn48137:1" speedFactor="0.8690447584513425" to="32978638#0" type="default_016" />
	<trip depart="57677.60" departSpeed="max" from="-306240162#1" id="carIn132618:1" speedFactor="0.9848372456196343" to="386687235" type="default_016" />
	<trip depart="57678.00" departSpeed="max" from="24693977#1" id="h3864c1:3" speedFactor="0.8401132113799952" to="201956820" type="default_016" />
	<trip depart="57678.40" departSpeed="max" from="315358254#0" id="h8343c1:5" speedFactor="0.9522091820182698" to="-24634510#5" type="default_016" />
	<trip depart="57679.00" departSpeed="max" from="-306240162#1" id="carIn99578:1" speedFactor="0.9539999605677204" to="201956820" type="default_016" />
	<trip depart="57679.10" departSpeed="max" from="128361109#1" id="h19413c1:1" speedFactor="0.8946065931640349" to="386687235" type="default_016" />
	<trip depart="57680.00" departSpeed="max" from="-447569998#1" id="h17549c1:1" speedFactor="0.8485995268182329" to="-315358254#1" type="default_016" />
	<trip depart="57680.80" departSpeed="max" from="315358244" id="carIn30817:1" speedFactor="0.9832634665842861" to="447569997#1" type="default_016" />
	<trip depart="57681.80" departSpeed="max" from="-306240162#1" id="carIn92047:1" speedFactor="0.8168015326479141" to="386687235" type="default_016" />
	<trip depart="57682.00" departSpeed="max" from="-447569998#1" id="carIn118538:1" speedFactor="0.9106133251504974" to="399835085#1" type="default_016" />
	<trip depart="57682.00" departSpeed="max" from="-54169231#2" id="h9953c2:3" speedFactor="0.9266722658753295" to="386687235" type="default_016" />
	<trip depart="57682.20" departSpeed="max" from="128361109#1" id="carIn88905:1" speedFactor="0.9978227176495541" to="386687235" type="default_016" />
	<trip depart="57682.80" departSpeed="max" from="315358244" id="carIn46110:1" speedFactor="0.9976249664575955" to="32978638#0" type="default_016" />
	<trip depart="57683.30" departSpeed="max" from="-306240162#1" id="carIn70061:1" speedFactor="0.976941001371668" to="386687235" type="default_016" />
	<trip depart="57684.70" departSpeed="max" from="-306240162#1" id="carIn119432:1" speedFactor="0.9942513568231287" to="201956820" type="default_016" />
	<trip depart="57686.20" departSpeed="max" from="-306240162#1" id="carIn4826:1" speedFactor="0.9573681370907804" to="386687235" type="default_016" />
	<trip depart="57688.80" departSpeed="max" from="315358244" id="carIn118591:1" speedFactor="0.9970216545863277" to="386687235" type="default_016" />
	<trip depart="57689.10" departSpeed="max" from="128361109#1" id="carIn99233:1" speedFactor="0.8672724399968013" to="386687235" type="default_016" />
	<trip depart="57689.50" departSpeed="max" from="315358254#0" id="h825c2:3" speedFactor="0.8934351555973687" to="32978638#0" type="default_016" />
	<trip depart="57691.20" departSpeed="max" from="315358254#0" id="h4388c1:3" speedFactor="0.89384557698421" to="32978638#0" type="default_016" />
	<trip depart="57691.20" departSpeed="max" from="128361109#1" id="h19577c1:1" speedFactor="0.9154221741040477" to="386687235" type="default_016" />
	<trip depart="57692.80" departSpeed="max" from="128361109#1" id="h19505c1:1" speedFactor="0.9054881035582574" to="32978638#0" type="default_016" />
	<trip depart="57693.50" departSpeed="max" from="-306240162#1" id="carIn4388:1" speedFactor="0.8467710373420596" to="386687235" type="default_016" />
	<trip depart="57694.40" departSpeed="max" from="128361109#1" id="carIn5824:1" speedFactor="0.9382089675073971" to="386687235" type="default_016" />
	<trip depart="57696.00" departSpeed="max" from="-447569998#1" id="h7800c1:5" speedFactor="0.8888074475767623" to="-447569998#1" type="default_016" />
	<trip depart="57696.10" departSpeed="max" from="128361109#1" id="h7305c1:3" speedFactor="0.9817783296045619" to="40888354#0" type="default_016" />
	<trip depart="57697.00" departSpeed="max" from="-26677216#0" id="h15472c1:3" speedFactor="0.8837154417176901" to="201956820" type="default_016" />
	<trip depart="57697.60" departSpeed="max" from="128361102#0" id="h23116c2:5" speedFactor="0.9248246211647622" to="30482615#1" type="default_016" />
	<trip depart="57699.90" departSpeed="max" from="315358254#0" id="h11868c1:5" speedFactor="0.9748928727932438" to="386687235" type="default_016" />
	<trip depart="57701.00" departSpeed="max" from="-10427692#1" id="h4538c1:1" speedFactor="0.8059177365905678" to="-128361102#1" type="default_016" />
	<trip depart="57701.30" departSpeed="max" from="-306240162#1" id="carIn82278:1" speedFactor="0.8517660542279066" to="399835085#1" type="default_016" />
	<trip depart="57705.30" departSpeed="max" from="-306240162#1" id="carIn23049:1" speedFactor="0.8972259082216133" to="386687235" type="default_016" />
	<trip depart="57706.90" departSpeed="max" from="-32978638#0" id="h317c2:1" speedFactor="0.8479356496584071" to="-266565295#5" type="default_016" />
	<trip depart="57709.90" departSpeed="max" from="-306240162#1" id="carIn60497:1" speedFactor="0.9601966408164554" to="386687235" type="default_016" />
	<trip depart="57711.40" departSpeed="max" from="128361102#0" id="carIn81860:1" speedFactor="0.9363758884675802" to="-24634517#17" type="default_016" />
	<trip depart="57712.50" departSpeed="max" from="315358244" id="carIn12365:1" speedFactor="0.9779011241579613" to="447569997#1" type="default_016" />
	<trip depart="57712.50" departSpeed="max" from="266565295#5" id="carIn92532:1" speedFactor="0.9783381545978981" to="18809673#0" type="default_016" />
	<trip depart="57716.20" departSpeed="max" from="315358254#0" id="h16437c1:3" speedFactor="0.9624904615477746" to="386687235" type="default_016" />
	<trip depart="57719.50" departSpeed="max" from="-18809673#6" id="carIn36761:1" speedFactor="0.9293524270234867" to="-266565295#5" type="default_016" />
	<trip depart="57719.80" departSpeed="max" from="-32978638#0" id="carIn99509:1" speedFactor="0.9870186886296933" to="-315358244" type="default_015" />
	<trip depart="57725.70" departSpeed="max" from="272042143" id="carIn81681:1" speedFactor="0.957535446327231" to="306240162#0" type="default_016" />
	<trip depart="57726.00" departSpeed="max" from="-447569998#1" id="randUni3548:1" speedFactor="0.8391940974011213" to="-315358254#1" type="random_016" />
	<trip depart="57727.00" departSpeed="max" from="201950247#3" id="h6541c1:3" speedFactor="0.9131026999242945" to="32978638#0" type="default_016" />
	<trip depart="57728.00" departSpeed="max" from="-447569998#1" id="carIn129809:1" speedFactor="0.934597521951691" to="-315358244" type="default_015" />
	<trip depart="57728.20" departSpeed="max" from="272042143" id="carIn13443:1" speedFactor="0.9045384014529794" to="399835085#1" type="default_016" />
	<trip depart="57729.40" departSpeed="max" from="10425609#0" id="h19989c1:1" speedFactor="0.9567638824881627" to="-128361102#1" type="default_016" />
	<trip depart="57729.50" departSpeed="max" from="128361102#0" id="carIn75793:1" speedFactor="0.8087835657790685" to="-83304175#2" type="default_016" />
	<trip depart="57731.60" departSpeed="max" from="272042143" id="carIn80913:1" speedFactor="0.8411872843387982" to="306240162#0" type="default_016" />
	<trip depart="57732.20" departSpeed="max" from="10425609#0" id="carIn92858:1" speedFactor="0.8175894368836433" to="-128361102#1" type="default_016" />
	<trip depart="57733.00" departSpeed="max" from="-24634510#15" id="h2483c1:1" speedFactor="0.9634661392855217" to="201956820" type="default_016" />
	<trip depart="57733.90" departSpeed="max" from="-306240162#1" id="carIn36351:1" speedFactor="0.8344348469528837" to="386687235" type="default_016" />
	<trip depart="57734.30" departSpeed="max" from="10425609#0" id="carIn101439:1" speedFactor="0.8467733691421792" to="-128361102#1" type="default_016" />
	<trip depart="57734.90" departSpeed="max" from="386687232#0" id="randUni15030:1" speedFactor="0.9831577692103529" to="26677539" type="random_016" />
	<trip depart="57735.80" departSpeed="max" from="-32978638#0" id="h330c1:1" speedFactor="0.9482766425863917" to="-266565295#5" type="default_016" />
	<trip depart="57736.50" departSpeed="max" from="272042143" id="carIn101266:1" speedFactor="0.9727636875765391" to="306240162#0" type="default_016" />
	<trip depart="57736.80" departSpeed="max" from="10425609#0" id="carIn84229:1" speedFactor="0.8234593773172781" to="-128361102#1" type="default_016" />
	<trip depart="57737.30" departSpeed="max" from="315358254#0" id="h15045c2:3" speedFactor="0.8295804706632387" to="32978638#0" type="default_016" />
	<trip depart="57738.50" departSpeed="max" from="24599188#0.94" id="carIn129628:1" speedFactor="0.8841637400756609" to="-315358254#1" type="default_016" />
	<trip depart="57739.30" departSpeed="max" from="272042143" id="carIn132499:1" speedFactor="0.8274566187265863" to="201238729#3" type="default_016" />
	<trip depart="57740.00" departSpeed="max" from="-26677542#0" id="h5938c1:1" speedFactor="0.8450406906930078" to="447569997#1" type="default_016" />
	<trip depart="57741.00" departSpeed="max" from="26677213#0" id="h6846c2:1" speedFactor="0.8885318911080227" to="386687235" type="default_016" />
	<trip depart="57741.10" departSpeed="max" from="272042143" id="carIn14532:1" speedFactor="0.9713043376772923" to="399835085#1" type="default_016" />
	<trip depart="57742.40" departSpeed="max" from="266565295#5" id="h10591c1:1" speedFactor="0.9922799143834852" to="18809673#0" type="default_016" />
	<trip depart="57742.50" departSpeed="max" from="386687232#0" id="carIn73855:1" speedFactor="0.9594759159046271" to="-315358244" type="default_016" />
	<trip depart="57742.90" departSpeed="max" from="266565295#5" id="h13760c1:1" speedFactor="0.8076375764510473" to="201238729#3" type="default_016" />
	<trip depart="57743.60" departSpeed="max" from="10425609#0" id="carIn16842:1" speedFactor="0.8633829562161139" to="18809673#0" type="default_016" />
	<trip depart="57744.20" departSpeed="max" from="386687232#0" id="carIn126378:1" speedFactor="0.8084909363415281" to="-315358244" type="default_016" />
	<trip depart="57745.00" departSpeed="max" from="315358254#0" id="h7178c1:1" speedFactor="0.8366248472511886" to="386687235" type="default_016" />
	<trip depart="57747.00" departSpeed="max" from="399835085#1" id="h13810c1:3" speedFactor="0.8712521231533754" to="32978638#0" type="default_016" />
	<trip depart="57749.00" departSpeed="max" from="-447569998#1" id="carIn107282:1" speedFactor="0.9042109438505826" to="315358242#0" type="default_016" />
	<trip depart="57749.40" departSpeed="max" from="315358244" id="h22816c2:3" speedFactor="0.9619744720318186" to="201956820" type="default_016" />
	<trip depart="57749.70" departSpeed="max" from="266565295#5" id="carIn24735:1" speedFactor="0.9237519581453266" to="201238729#3" type="default_016" />
	<trip depart="57750.50" departSpeed="max" from="266565295#5" id="carIn24709:1" speedFactor="0.8739296435337183" to="-24634506#2" type="default_016" />
	<trip depart="57752.00" departSpeed="max" from="24634510#0" id="h8633c1:3" speedFactor="0.9127617443736568" to="201956820" type="default_016" />
	<trip depart="57752.50" departSpeed="max" from="-306240162#1" id="carIn123877:1" speedFactor="0.9726480657767186" to="30482615#1" type="default_016" />
	<trip depart="57754.00" departSpeed="max" from="-306240162#1" id="carIn107484:1" speedFactor="0.9678676580550577" to="386687235" type="default_016" />
	<trip depart="57754.70" departSpeed="max" from="-447569998#1" id="carIn121351:1" speedFactor="0.8860636696276469" to="399835085#1" type="default_015" />
	<trip depart="57755.40" departSpeed="max" from="-306240162#1" id="carIn1513:1" speedFactor="0.8611877035669122" to="386687235" type="default_016" />
	<trip depart="57756.80" departSpeed="max" from="-306240162#1" id="carIn41392:1" speedFactor="0.8764139363008094" to="201956820" type="default_016" />
	<trip depart="57757.30" departSpeed="max" from="128361102#0" id="carIn56449:1" speedFactor="0.9662596741332263" to="30482615#1" type="default_016" />
	<trip depart="57757.40" departSpeed="max" from="-32978638#0" id="carIn117869:1" speedFactor="0.9468532540092626" to="-315358244" type="default_016" />
	<trip depart="57758.50" departSpeed="max" from="24599188#0.94" id="carIn115169:1" speedFactor="0.9535390516581193" to="-10427692#3" type="default_016" />
	<trip depart="57760.00" departSpeed="max" from="176550249#3" id="h8468c1:3" speedFactor="0.9788525650432468" to="201238729#3" type="default_016" />
	<trip depart="57760.40" departSpeed="max" from="128361102#0" id="carIn125694:1" speedFactor="0.8158321090108811" to="201956820" type="default_016" />
	<trip depart="57760.50" departSpeed="max" from="24599188#0.94" id="carIn27323:1" speedFactor="0.9349109808680308" to="-315358254#1" type="default_016" />
	<trip depart="57760.60" departSpeed="max" from="-306240162#1" id="carIn53503:1" speedFactor="0.9523320746663889" to="24634510#6" type="default_016" />
	<trip depart="57764.50" departSpeed="max" from="128361109#1" id="carIn49359:1" speedFactor="0.926336489309277" to="386687235" type="default_016" />
	<trip depart="57764.60" departSpeed="max" from="128361102#0" id="carIn82741:1" speedFactor="0.8842959693404264" to="201956820" type="default_016" />
	<trip depart="57766.10" departSpeed="max" from="128361109#1" id="carIn70751:1" speedFactor="0.9191359048833779" to="386687235" type="default_016" />
	<trip depart="57767.00" departSpeed="max" from="124812856#0" id="carIn106296:1" speedFactor="0.9677449451269013" to="18809673#0" type="default_016" />
	<trip depart="57767.00" departSpeed="max" from="-24634413#2" id="h3536c1:1" speedFactor="0.8993578213147841" to="32978638#0" type="default_016" />
	<trip depart="57767.70" departSpeed="max" from="128361109#1" id="carIn21399:1" speedFactor="0.9123255970319494" to="-315358254#1" type="default_016" />
	<trip depart="57768.90" departSpeed="max" from="128361102#0" id="h19249c2:1" speedFactor="0.9184513000071111" to="201956820" type="default_016" />
	<trip depart="57769.30" departSpeed="max" from="128361109#1" id="carIn7286:1" speedFactor="0.8008608335995027" to="386687235" type="default_016" />
	<trip depart="57771.20" departSpeed="max" from="128361109#1" id="carIn75964:1" speedFactor="0.9315007856738283" to="386687235" type="default_016" />
	<trip depart="57772.80" departSpeed="max" from="128361109#1" id="carIn48897:1" speedFactor="0.9170106669249651" to="386687235" type="default_016" />
	<trip depart="57773.10" departSpeed="max" from="-447569998#1" id="carIn8642:1" speedFactor="0.9411753006339159" to="-315358244" type="default_016" />
	<trip depart="57773.50" departSpeed="max" from="124812856#0" id="carIn104643:1" speedFactor="0.9434667104985305" to="18809673#0" type="default_016" />