<routes xmlns:xsi="http://www.w3.org/2001/XMLSchema-instance" xsi:noNamespaceSchemaLocation="http://sumo.dlr.de/xsd/routes_file.xsd">
    <vType accel="5" decel="10" id="type1" length="5.00" />
    <vehicle depart="0.00" departPos="random_free" departSpeed="max" id="f_0_0.0" speedFactor="1.1143411767882234" type="type1">
        <route edges="np13_nt13 nt13_nt14 nt14_nt15 nt15_nt11 nt11_nt7 nt7_nt3 nt3_nt4 nt4_np5" />
    </vehicle>
    <vehicle depart="0.00" departPos="random_free" departSpeed="max" id="f_0_1.0" speedFactor="1.0255231285727064" type="type1">
        <route edges="np16_nt1 nt1_nt2 nt2_nt3 nt3_nt7 nt7_nt11 nt11_nt15 nt15_nt16 nt16_np8" />
    </vehicle>
    <vehicle depart="0.00" departPos="random_free" departSpeed="max" id="f_0_2.0" speedFactor="1.1862016996448563" type="type1">
        <route edges="np2_nt2 nt2_nt3 nt3_nt7 nt7_nt11 nt11_nt15 nt15_np10" />
    </vehicle>
    <vehicle depart="0.00" departPos="random_free" departSpeed="max" id="f_0_3.0" speedFactor="1.1881127493021886" type="type1">
        <route edges="np3_nt3 nt3_nt2 nt2_nt6 nt6_nt10 nt10_nt14 nt14_np11" />
    </vehicle>
    <vehicle depart="8.18" departPos="random_free" departSpeed="max" id="f_0_2.1" speedFactor="1.0321181253006664" type="type1">
        <route edges="np2_nt2 nt2_nt3 nt3_nt7 nt7_nt11 nt11_nt15 nt15_np10" />
    </vehicle>
    <vehicle depart="8.18" departPos="random_free" departSpeed="max" id="f_0_3.1" speedFactor="1.0063547389629657" type="type1">
        <route edges="np3_nt3 nt3_nt2 nt2_nt6 nt6_nt10 nt10_nt14 nt14_np11" />
    </vehicle>
    <vehicle depart="13.64" departPos="random_free" departSpeed="max" id="f_0_0.1" speedFactor="1.181300013758153" type="type1">
        <route edges="np13_nt13 nt13_nt14 nt14_nt15 nt15_nt11 nt11_nt7 nt7_nt3 nt3_nt4 nt4_np5" />
    </vehicle>
    <vehicle depart="13.64" departPos="random_free" departSpeed="max" id="f_0_1.1" speedFactor="1.0153238991395763" type="type1">
        <route edges="np16_nt1 nt1_nt2 nt2_nt3 nt3_nt7 nt7_nt11 nt11_nt15 nt15_nt16 nt16_np8" />
    </vehicle>
    <vehicle depart="16.36" departPos="random_free" departSpeed="max" id="f_0_2.2" speedFactor="1.0387193878286687" type="type1">
        <route edges="np2_nt2 nt2_nt3 nt3_nt7 nt7_nt11 nt11_nt15 nt15_np10" />
    </vehicle>
    <vehicle depart="16.36" departPos="random_free" departSpeed="max" id="f_0_3.2" speedFactor="1.1654468224984602" type="type1">
        <route edges="np3_nt3 nt3_nt2 nt2_nt6 nt6_nt10 nt10_nt14 nt14_np11" />
    </vehicle>
    <vehicle depart="24.55" departPos="random_free" departSpeed="max" id="f_0_2.3" speedFactor="1.173340272121595" type="type1">
        <route edges="np2_nt2 nt2_nt3 nt3_nt7 nt7_nt11 nt11_nt15 nt15_np10" />
    </vehicle>
    <vehicle depart="24.55" departPos="random_free" departSpeed="max" id="f_0_3.3" speedFactor="1.0710320101294548" type="type1">
        <route edges="np3_nt3 nt3_nt2 nt2_nt6 nt6_nt10 nt10_nt14 nt14_np11" />
    </vehicle>
    <vehicle depart="27.27" departPos="random_free" departSpeed="max" id="f_0_0.2" speedFactor="1.0904478739305217" type="type1">
        <route edges="np13_nt13 nt13_nt14 nt14_nt15 nt15_nt11 nt11_nt7 nt7_nt3 nt3_nt4 nt4_np5" />
    </vehicle>
    <vehicle depart="27.27" departPos="random_free" departSpeed="max" id="f_0_1.2" speedFactor="1.0861086939736408" type="type1">
        <route edges="np16_nt1 nt1_nt2 nt2_nt3 nt3_nt7 nt7_nt11 nt11_nt15 nt15_nt16 nt16_np8" />
    </vehicle>
    <vehicle depart="32.73" departPos="random_free" departSpeed="max" id="f_0_2.4" speedFactor="1.0722918300925568" type="type1">
        <route edges="np2_nt2 nt2_nt3 nt3_nt7 nt7_nt11 nt11_nt15 nt15_np10" />
    </vehicle>
    <vehicle depart="32.73" departPos="random_free" departSpeed="max" id="f_0_3.4" speedFactor="1.0708411548958137" type="type1">
        <route edges="np3_nt3 nt3_nt2 nt2_nt6 nt6_nt10 nt10_nt14 nt14_np11" />
    </vehicle>
    <vehicle depart="40.91" departPos="random_free" departSpeed="max" id="f_0_0.3" speedFactor="1.0686408173844966" type="type1">
        <route edges="np13_nt13 nt13_nt14 nt14_nt15 nt15_nt11 nt11_nt7 nt7_nt3 nt3_nt4 nt4_np5" />
    </vehicle>
    <vehicle depart="40.91" departPos="random_free" departSpeed="max" id="f_0_1.3" speedFactor="1.0819710489138086" type="type1">
        <route edges="np16_nt1 nt1_nt2 nt2_nt3 nt3_nt7 nt7_nt11 nt11_nt15 nt15_nt16 nt16_np8" />
    </vehicle>
    <vehicle depart="40.91" departPos="random_free" departSpeed="max" id="f_0_2.5" speedFactor="1.053039349576597" type="type1">
        <route edges="np2_nt2 nt2_nt3 nt3_nt7 nt7_nt11 nt11_nt15 nt15_np10" />
    </vehicle>
    <vehicle depart="40.91" departPos="random_free" departSpeed="max" id="f_0_3.5" speedFactor="1.1443216531417744" type="type1">
        <route edges="np3_nt3 nt3_nt2 nt2_nt6 nt6_nt10 nt10_nt14 nt14_np11" />
    </vehicle>
    <vehicle depart="49.09" departPos="random_free" departSpeed="max" id="f_0_2.6" speedFactor="1.126081002674765" type="type1">
        <route edges="np2_nt2 nt2_nt3 nt3_nt7 nt7_nt11 nt11_nt15 nt15_np10" />
    </vehicle>
    <vehicle depart="49.09" departPos="random_free" departSpeed="max" id="f_0_3.6" speedFactor="1.153586306031593" type="type1">
        <route edges="np3_nt3 nt3_nt2 nt2_nt6 nt6_nt10 nt10_nt14 nt14_np11" />
    </vehicle>
    <vehicle depart="54.54" departPos="random_free" departSpeed="max" id="f_0_0.4" speedFactor="1.0080974758899444" type="type1">
        <route edges="np13_nt13 nt13_nt14 nt14_nt15 nt15_nt11 nt11_nt7 nt7_nt3 nt3_nt4 nt4_np5" />
    </vehicle>
    <vehicle depart="54.54" departPos="random_free" departSpeed="max" id="f_0_1.4" speedFactor="1.0953295141983255" type="type1">
        <route edges="np16_nt1 nt1_nt2 nt2_nt3 nt3_nt7 nt7_nt11 nt11_nt15 nt15_nt16 nt16_np8" />
    </vehicle>
    <vehicle depart="57.27" departPos="random_free" departSpeed="max" id="f_0_2.7" speedFactor="1.0728219690020824" type="type1">
        <route edges="np2_nt2 nt2_nt3 nt3_nt7 nt7_nt11 nt11_nt15 nt15_np10" />
    </vehicle>
    <vehicle depart="57.27" departPos="random_free" departSpeed="max" id="f_0_3.7" speedFactor="1.1478689612518944" type="type1">
        <route edges="np3_nt3 nt3_nt2 nt2_nt6 nt6_nt10 nt10_nt14 nt14_np11" />
    </vehicle>
    <vehicle depart="65.46" departPos="random_free" departSpeed="max" id="f_0_2.8" speedFactor="1.0658360436924532" type="type1">
        <route edges="np2_nt2 nt2_nt3 nt3_nt7 nt7_nt11 nt11_nt15 nt15_np10" />
    </vehicle>
    <vehicle depart="65.46" departPos="random_free" departSpeed="max" id="f_0_3.8" speedFactor="1.1117972934814777" type="type1">
        <route edges="np3_nt3 nt3_nt2 nt2_nt6 nt6_nt10 nt10_nt14 nt14_np11" />
    </vehicle>
    <vehicle depart="68.18" departPos="random_free" departSpeed="max" id="f_0_0.5" speedFactor="1.0964812296458761" type="type1">
        <route edges="np13_nt13 nt13_nt14 nt14_nt15 nt15_nt11 nt11_nt7 nt7_nt3 nt3_nt4 nt4_np5" />
    </vehicle>
    <vehicle depart="68.18" departPos="random_free" departSpeed="max" id="f_0_1.5" speedFactor="1.0627008164252063" type="type1">
        <route edges="np16_nt1 nt1_nt2 nt2_nt3 nt3_nt7 nt7_nt11 nt11_nt15 nt15_nt16 nt16_np8" />
    </vehicle>
    <vehicle depart="73.64" departPos="random_free" departSpeed="max" id="f_0_2.9" speedFactor="1.0336428546506458" type="type1">
        <route edges="np2_nt2 nt2_nt3 nt3_nt7 nt7_nt11 nt11_nt15 nt15_np10" />
    </vehicle>
    <vehicle depart="73.64" departPos="random_free" departSpeed="max" id="f_0_3.9" speedFactor="1.0947744780826134" type="type1">
        <route edges="np3_nt3 nt3_nt2 nt2_nt6 nt6_nt10 nt10_nt14 nt14_np11" />
    </vehicle>
    <vehicle depart="81.82" departPos="random_free" departSpeed="max" id="f_0_0.6" speedFactor="1.0362377020720266" type="type1">
        <route edges="np13_nt13 nt13_nt14 nt14_nt15 nt15_nt11 nt11_nt7 nt7_nt3 nt3_nt4 nt4_np5" />
    </vehicle>
    <vehicle depart="81.82" departPos="random_free" departSpeed="max" id="f_0_1.6" speedFactor="1.1874982304496302" type="type1">
        <route edges="np16_nt1 nt1_nt2 nt2_nt3 nt3_nt7 nt7_nt11 nt11_nt15 nt15_nt16 nt16_np8" />
    </vehicle>
    <vehicle depart="81.82" departPos="random_free" departSpeed="max" id="f_0_2.10" speedFactor="1.0406205376439663" type="type1">
        <route edges="np2_nt2 nt2_nt3 nt3_nt7 nt7_nt11 nt11_nt15 nt15_np10" />
    </vehicle>
    <vehicle depart="81.82" departPos="random_free" departSpeed="max" id="f_0_3.10" speedFactor="1.1388119054413202" type="type1">
        <route edges="np3_nt3 nt3_nt2 nt2_nt6 nt6_nt10 nt10_nt14 nt14_np11" />
    </vehicle>
    <vehicle depart="90.00" departPos="random_free" departSpeed="max" id="f_0_2.11" speedFactor="1.036002924554118" type="type1">
        <route edges="np2_nt2 nt2_nt3 nt3_nt7 nt7_nt11 nt11_nt15 nt15_np10" />
    </vehicle>
    <vehicle depart="90.00" departPos="random_free" departSpeed="max" id="f_0_3.11" speedFactor="1.1087839004936955" type="type1">
        <route edges="np3_nt3 nt3_nt2 nt2_nt6 nt6_nt10 nt10_nt14 nt14_np11" />
    </vehicle>
    <vehicle depart="95.45" departPos="random_free" departSpeed="max" id="f_0_0.7" speedFactor="1.151893018961747" type="type1">
        <route edges="np13_nt13 nt13_nt14 nt14_nt15 nt15_nt11 nt11_nt7 nt7_nt3 nt3_nt4 nt4_np5" />
    </vehicle>
    <vehicle depart="95.45" departPos="random_free" departSpeed="max" id="f_0_1.7" speedFactor="1.1064327743630038" type="type1">
        <route edges="np16_nt1 nt1_nt2 nt2_nt3 nt3_nt7 nt7_nt11 nt11_nt15 nt15_nt16 nt16_np8" />
    </vehicle>
    <vehicle depart="98.18" departPos="random_free" departSpeed="max" id="f_0_2.12" speedFactor="1.1207798300238863" type="type1">
        <route edges="np2_nt2 nt2_nt3 nt3_nt7 nt7_nt11 nt11_nt15 nt15_np10" />
    </vehicle>
    <vehicle depart="98.18" departPos="random_free" departSpeed="max" id="f_0_3.12" speedFactor="1.077208587167738" type="type1">
        <route edges="np3_nt3 nt3_nt2 nt2_nt6 nt6_nt10 nt10_nt14 nt14_np11" />
    </vehicle>
    <vehicle depart="106.37" departPos="random_free" departSpeed="max" id="f_0_2.13" speedFactor="1.1504077133239372" type="type1">
        <route edges="np2_nt2 nt2_nt3 nt3_nt7 nt7_nt11 nt11_nt15 nt15_np10" />
    </vehicle>
    <vehicle depart="106.37" departPos="random_free" departSpeed="max" id="f_0_3.13" speedFactor="1.0727315311617227" type="type1">
        <route edges="np3_nt3 nt3_nt2 nt2_nt6 nt6_nt10 nt10_nt14 nt14_np11" />
    </vehicle>
    <vehicle depart="109.09" departPos="random_free" departSpeed="max" id="f_0_0.8" speedFactor="1.186982833490779" type="type1">
        <route edges="np13_nt13 nt13_nt14 nt14_nt15 nt15_nt11 nt11_nt7 nt7_nt3 nt3_nt4 nt4_np5" />
    </vehicle>
    <vehicle depart="109.09" departPos="random_free" departSpeed="max" id="f_0_1.8" speedFactor="1.1213485768263458" type="type1">
        <route edges="np16_nt1 nt1_nt2 nt2_nt3 nt3_nt7 nt7_nt11 nt11_nt15 nt15_nt16 nt16_np8" />
    </vehicle>
    <vehicle depart="114.55" departPos="random_free" departSpeed="max" id="f_0_2.14" speedFactor="1.0190443660635125" type="type1">
        <route edges="np2_nt2 nt2_nt3 nt3_nt7 nt7_nt11 nt11_nt15 nt15_np10" />
    </vehicle>
    <vehicle depart="114.55" departPos="random_free" departSpeed="max" id="f_0_3.14" speedFactor="1.1459632887954259" type="type1">
        <route edges="np3_nt3 nt3_nt2 nt2_nt6 nt6_nt10 nt10_nt14 nt14_np11" />
    </vehicle>
    <vehicle depart="122.72" departPos="random_free" departSpeed="max" id="f_0_0.9" speedFactor="1.0575037340117477" type="type1">
        <route edges="np13_nt13 nt13_nt14 nt14_nt15 nt15_nt11 nt11_nt7 nt7_nt3 nt3_nt4 nt4_np5" />
    </vehicle>
    <vehicle depart="122.72" departPos="random_free" departSpeed="max" id="f_0_1.9" speedFactor="1.054408596226132" type="type1">
        <route edges="np16_nt1 nt1_nt2 nt2_nt3 nt3_nt7 nt7_nt11 nt11_nt15 nt15_nt16 nt16_np8" />
    </vehicle>
    <vehicle depart="122.73" departPos="random_free" departSpeed="max" id="f_0_2.15" speedFactor="1.1532777419775886" type="type1">
        <route edges="np2_nt2 nt2_nt3 nt3_nt7 nt7_nt11 nt11_nt15 nt15_np10" />
    </vehicle>
    <vehicle depart="122.73" departPos="random_free" departSpeed="max" id="f_0_3.15" speedFactor="1.107423708816953" type="type1">
        <route edges="np3_nt3 nt3_nt2 nt2_nt6 nt6_nt10 nt10_nt14 nt14_np11" />
    </vehicle>
    <vehicle depart="130.91" departPos="random_free" departSpeed="max" id="f_0_2.16" speedFactor="1.1787777662166559" type="type1">
        <route edges="np2_nt2 nt2_nt3 nt3_nt7 nt7_nt11 nt11_nt15 nt15_np10" />
    </vehicle>
    <vehicle depart="130.91" departPos="random_free" departSpeed="max" id="f_0_3.16" speedFactor="1.0025453296901217" type="type1">
        <route edges="np3_nt3 nt3_nt2 nt2_nt6 nt6_nt10 nt10_nt14 nt14_np11" />
    </vehicle>
    <vehicle depart="136.36" departPos="random_free" departSpeed="max" id="f_0_0.10" speedFactor="1.1277700115137606" type="type1">
        <route edges="np13_nt13 nt13_nt14 nt14_nt15 nt15_nt11 nt11_nt7 nt7_nt3 nt3_nt4 nt4_np5" />
    </vehicle>
    <vehicle depart="136.36" departPos="random_free" departSpeed="max" id="f_0_1.10" speedFactor="1.1016185158858596" type="type1">
        <route edges="np16_nt1 nt1_nt2 nt2_nt3 nt3_nt7 nt7_nt11 nt11_nt15 nt15_nt16 nt16_np8" />
    </vehicle>
    <vehicle depart="139.09" departPos="random_free" departSpeed="max" id="f_0_2.17" speedFactor="1.0848483738223862" type="type1">
        <route edges="np2_nt2 nt2_nt3 nt3_nt7 nt7_nt11 nt11_nt15 nt15_np10" />
    </vehicle>
    <vehicle depart="139.09" departPos="random_free" departSpeed="max" id="f_0_3.17" speedFactor="1.0293975903593757" type="type1">
        <route edges="np3_nt3 nt3_nt2 nt2_nt6 nt6_nt10 nt10_nt14 nt14_np11" />
    </vehicle>
    <vehicle depart="147.28" departPos="random_free" departSpeed="max" id="f_0_2.18" speedFactor="1.1020901406264056" type="type1">
        <route edges="np2_nt2 nt2_nt3 nt3_nt7 nt7_nt11 nt11_nt15 nt15_np10" />
    </vehicle>
    <vehicle depart="147.28" departPos="random_free" departSpeed="max" id="f_0_3.18" speedFactor="1.0459264451856585" type="type1">
        <route edges="np3_nt3 nt3_nt2 nt2_nt6 nt6_nt10 nt10_nt14 nt14_np11" />
    </vehicle>
    <vehicle depart="150.00" departPos="random_free" departSpeed="max" id="f_0_0.11" speedFactor="1.026727685865537" type="type1">
        <route edges="np13_nt13 nt13_nt14 nt14_nt15 nt15_nt11 nt11_nt7 nt7_nt3 nt3_nt4 nt4_np5" />
    </vehicle>
    <vehicle depart="150.00" departPos="random_free" departSpeed="max" id="f_0_1.11" speedFactor="1.0535468775339443" type="type1">
        <route edges="np16_nt1 nt1_nt2 nt2_nt3 nt3_nt7 nt7_nt11 nt11_nt15 nt15_nt16 nt16_np8" />
    </vehicle>
    <vehicle depart="155.46" departPos="random_free" departSpeed="max" id="f_0_2.19" speedFactor="1.1849931847198198" type="type1">
        <route edges="np2_nt2 nt2_nt3 nt3_nt7 nt7_nt11 nt11_nt15 nt15_np10" />
    </vehicle>
    <vehicle depart="155.46" departPos="random_free" departSpeed="max" id="f_0_3.19" speedFactor="1.046388339586412" type="type1">
        <route edges="np3_nt3 nt3_nt2 nt2_nt6 nt6_nt10 nt10_nt14 nt14_np11" />
    </vehicle>
    <vehicle depart="163.63" departPos="random_free" departSpeed="max" id="f_0_0.12" speedFactor="1.0367114780245894" type="type1">
        <route edges="np13_nt13 nt13_nt14 nt14_nt15 nt15_nt11 nt11_nt7 nt7_nt3 nt3_nt4 nt4_np5" />
    </vehicle>
    <vehicle depart="163.63" departPos="random_free" departSpeed="max" id="f_0_1.12" speedFactor="1.09383709484928" type="type1">
        <route edges="np16_nt1 nt1_nt2 nt2_nt3 nt3_nt7 nt7_nt11 nt11_nt15 nt15_nt16 nt16_np8" />
    </vehicle>
    <vehicle depart="163.64" departPos="random_free" departSpeed="max" id="f_0_2.20" speedFactor="1.0714663957081751" type="type1">
        <route edges="np2_nt2 nt2_nt3 nt3_nt7 nt7_nt11 nt11_nt15 nt15_np10" />
    </vehicle>
    <vehicle depart="163.64" departPos="random_free" departSpeed="max" id="f_0_3.20" speedFactor="1.126062178559882" type="type1">
        <route edges="np3_nt3 nt3_nt2 nt2_nt6 nt6_nt10 nt10_nt14 nt14_np11" />
    </vehicle>
    <vehicle depart="171.82" departPos="random_free" departSpeed="max" id="f_0_2.21" speedFactor="1.017326314548941" type="type1">
        <route edges="np2_nt2 nt2_nt3 nt3_nt7 nt7_nt11 nt11_nt15 nt15_np10" />
    </vehicle>
    <vehicle depart="171.82" departPos="random_free" departSpeed="max" id="f_0_3.21" speedFactor="1.1238393239239162" type="type1">
        <route edges="np3_nt3 nt3_nt2 nt2_nt6 nt6_nt10 nt10_nt14 nt14_np11" />
    </vehicle>
    <vehicle depart="177.27" departPos="random_free" departSpeed="max" id="f_0_0.13" speedFactor="1.007557794125334" type="type1">
        <route edges="np13_nt13 nt13_nt14 nt14_nt15 nt15_nt11 nt11_nt7 nt7_nt3 nt3_nt4 nt4_np5" />
    </vehicle>
    <vehicle depart="177.27" departPos="random_free" departSpeed="max" id="f_0_1.13" speedFactor="1.0311340402307023" type="type1">
        <route edges="np16_nt1 nt1_nt2 nt2_nt3 nt3_nt7 nt7_nt11 nt11_nt15 nt15_nt16 nt16_np8" />
    </vehicle>
    <vehicle depart="180.00" departPos="random_free" departSpeed="max" id="f_0_2.22" speedFactor="1.067525536019256" type="type1">
        <route edges="np2_nt2 nt2_nt3 nt3_nt7 nt7_nt11 nt11_nt15 nt15_np10" />
    </vehicle>
    <vehicle depart="180.00" departPos="random_free" departSpeed="max" id="f_0_3.22" speedFactor="1.0848267437918855" type="type1">
        <route edges="np3_nt3 nt3_nt2 nt2_nt6 nt6_nt10 nt10_nt14 nt14_np11" />
    </vehicle>
    <vehicle depart="188.19" departPos="random_free" departSpeed="max" id="f_0_2.23" speedFactor="1.0657961640447524" type="type1">
        <route edges="np2_nt2 nt2_nt3 nt3_nt7 nt7_nt11 nt11_nt15 nt15_np10" />
    </vehicle>
    <vehicle depart="188.19" departPos="random_free" departSpeed="max" id="f_0_3.23" speedFactor="1.0895565424376552" type="type1">
        <route edges="np3_nt3 nt3_nt2 nt2_nt6 nt6_nt10 nt10_nt14 nt14_np11" />
    </vehicle>
    <vehicle depart="190.90" departPos="random_free" departSpeed="max" id="f_0_0.14" speedFactor="1.0756156158092869" type="type1">
        <route edges="np13_nt13 nt13_nt14 nt14_nt15 nt15_nt11 nt11_nt7 nt7_nt3 nt3_nt4 nt4_np5" />
    </vehicle>
    <vehicle depart="190.90" departPos="random_free" departSpeed="max" id="f_0_1.14" speedFactor="1.161796051746532" type="type1">
        <route edges="np16_nt1 nt1_nt2 nt2_nt3 nt3_nt7 nt7_nt11 nt11_nt15 nt15_nt16 nt16_np8" />
    </vehicle>
    <vehicle depart="196.37" departPos="random_free" departSpeed="max" id="f_0_2.24" speedFactor="1.0834865391779573" type="type1">
        <route edges="np2_nt2 nt2_nt3 nt3_nt7 nt7_nt11 nt11_nt15 nt15_np10" />
    </vehicle>
    <vehicle depart="196.37" departPos="random_free" departSpeed="max" id="f_0_3.24" speedFactor="1.193498188756685" type="type1">
        <route edges="np3_nt3 nt3_nt2 nt2_nt6 nt6_nt10 nt10_nt14 nt14_np11" />
    </vehicle>
    <vehicle depart="204.54" departPos="random_free" departSpeed="max" id="f_0_0.15" speedFactor="1.0763924459869776" type="type1">
        <route edges="np13_nt13 nt13_nt14 nt14_nt15 nt15_nt11 nt11_nt7 nt7_nt3 nt3_nt4 nt4_np5" />
    </vehicle>
    <vehicle depart="204.54" departPos="random_free" departSpeed="max" id="f_0_1.15" speedFactor="1.172085744253795" type="type1">
        <route edges="np16_nt1 nt1_nt2 nt2_nt3 nt3_nt7 nt7_nt11 nt11_nt15 nt15_nt16 nt16_np8" />
    </vehicle>
    <vehicle depart="204.55" departPos="random_free" departSpeed="max" id="f_0_2.25" speedFactor="1.0504922856085228" type="type1">
        <route edges="np2_nt2 nt2_nt3 nt3_nt7 nt7_nt11 nt11_nt15 nt15_np10" />
    </vehicle>
    <vehicle depart="204.55" departPos="random_free" departSpeed="max" id="f_0_3.25" speedFactor="1.1441899331254834" type="type1">
        <route edges="np3_nt3 nt3_nt2 nt2_nt6 nt6_nt10 nt10_nt14 nt14_np11" />
    </vehicle>
    <vehicle depart="212.73" departPos="random_free" departSpeed="max" id="f_0_2.26" speedFactor="1.1111628679834515" type="type1">
        <route edges="np2_nt2 nt2_nt3 nt3_nt7 nt7_nt11 nt11_nt15 nt15_np10" />
    </vehicle>
    <vehicle depart="212.73" departPos="random_free" departSpeed="max" id="f_0_3.26" speedFactor="1.0773150365731947" type="type1">
        <route edges="np3_nt3 nt3_nt2 nt2_nt6 nt6_nt10 nt10_nt14 nt14_np11" />
    </vehicle>
    <vehicle depart="218.18" departPos="random_free" departSpeed="max" id="f_0_0.16" speedFactor="1.1269785050381051" type="type1">
        <route edges="np13_nt13 nt13_nt14 nt14_nt15 nt15_nt11 nt11_nt7 nt7_nt3 nt3_nt4 nt4_np5" />
    </vehicle>
    <vehicle depart="218.18" departPos="random_free" departSpeed="max" id="f_0_1.16" speedFactor="1.0351606255954309" type="type1">
        <route edges="np16_nt1 nt1_nt2 nt2_nt3 nt3_nt7 nt7_nt11 nt11_nt15 nt15_nt16 nt16_np8" />
    </vehicle>
    <vehicle depart="220.91" departPos="random_free" departSpeed="max" id="f_0_2.27" speedFactor="1.0277135874817918" type="type1">
        <route edges="np2_nt2 nt2_nt3 nt3_nt7 nt7_nt11 nt11_nt15 nt15_np10" />
    </vehicle>
    <vehicle depart="220.91" departPos="random_free" departSpeed="max" id="f_0_3.27" speedFactor="1.0068762189821205" type="type1">
        <route edges="np3_nt3 nt3_nt2 nt2_nt6 nt6_nt10 nt10_nt14 nt14_np11" />
    </vehicle>
    <vehicle depart="229.10" departPos="random_free" departSpeed="max" id="f_0_2.28" speedFactor="1.0093390333519343" type="type1">
        <route edges="np2_nt2 nt2_nt3 nt3_nt7 nt7_nt11 nt11_nt15 nt15_np10" />
    </vehicle>
    <vehicle depart="229.10" departPos="random_free" departSpeed="max" id="f_0_3.28" speedFactor="1.1543223211227165" type="type1">
        <route edges="np3_nt3 nt3_nt2 nt2_nt6 nt6_nt10 nt10_nt14 nt14_np11" />
    </vehicle>
    <vehicle depart="231.81" departPos="random_free" departSpeed="max" id="f_0_0.17" speedFactor="1.112552281965427" type="type1">
        <route edges="np13_nt13 nt13_nt14 nt14_nt15 nt15_nt11 nt11_nt7 nt7_nt3 nt3_nt4 nt4_np5" />
    </vehicle>
    <vehicle depart="231.81" departPos="random_free" departSpeed="max" id="f_0_1.17" speedFactor="1.0931862929613019" type="type1">
        <route edges="np16_nt1 nt1_nt2 nt2_nt3 nt3_nt7 nt7_nt11 nt11_nt15 nt15_nt16 nt16_np8" />
    </vehicle>
    <vehicle depart="237.28" departPos="random_free" departSpeed="max" id="f_0_2.29" speedFactor="1.1363734893480961" type="type1">
        <route edges="np2_nt2 nt2_nt3 nt3_nt7 nt7_nt11 nt11_nt15 nt15_np10" />
    </vehicle>
    <vehicle depart="237.28" departPos="random_free" departSpeed="max" id="f_0_3.29" speedFactor="1.1219705415554235" type="type1">
        <route edges="np3_nt3 nt3_nt2 nt2_nt6 nt6_nt10 nt10_nt14 nt14_np11" />
    </vehicle>
    <vehicle depart="245.45" departPos="random_free" departSpeed="max" id="f_0_0.18" speedFactor="1.141410785756195" type="type1">
        <route edges="np13_nt13 nt13_nt14 nt14_nt15 nt15_nt11 nt11_nt7 nt7_nt3 nt3_nt4 nt4_np5" />
    </vehicle>
    <vehicle depart="245.45" departPos="random_free" departSpeed="max" id="f_0_1.18" speedFactor="1.0538577531962574" type="type1">
        <route edges="np16_nt1 nt1_nt2 nt2_nt3 nt3_nt7 nt7_nt11 nt11_nt15 nt15_nt16 nt16_np8" />
    </vehicle>
    <vehicle depart="245.46" departPos="random_free" departSpeed="max" id="f_0_2.30" speedFactor="1.1967706496686892" type="type1">
        <route edges="np2_nt2 nt2_nt3 nt3_nt7 nt7_nt11 nt11_nt15 nt15_np10" />
    </vehicle>
    <vehicle depart="245.46" departPos="random_free" departSpeed="max" id="f_0_3.30" speedFactor="1.0615761672936097" type="type1">
        <route edges="np3_nt3 nt3_nt2 nt2_nt6 nt6_nt10 nt10_nt14 nt14_np11" />
    </vehicle>
    <vehicle depart="253.64" departPos="random_free" departSpeed="max" id="f_0_2.31" speedFactor="1.1438747411723134" type="type1">
        <route edges="np2_nt2 nt2_nt3 nt3_nt7 nt7_nt11 nt11_nt15 nt15_np10" />
    </vehicle>
    <vehicle depart="253.64" departPos="random_free" departSpeed="max" id="f_0_3.31" speedFactor="1.0984720265136512" type="type1">
        <route edges="np3_nt3 nt3_nt2 nt2_nt6 nt6_nt10 nt10_nt14 nt14_np11" />
    </vehicle>
    <vehicle depart="259.08" departPos="random_free" departSpeed="max" id="f_0_0.19" speedFactor="1.1229601846679471" type="type1">
        <route edges="np13_nt13 nt13_nt14 nt14_nt15 nt15_nt11 nt11_nt7 nt7_nt3 nt3_nt4 nt4_np5" />
    </vehicle>
    <vehicle depart="259.08" departPos="random_free" departSpeed="max" id="f_0_1.19" speedFactor="1.0079576146543447" type="type1">
        <route edges="np16_nt1 nt1_nt2 nt2_nt3 nt3_nt7 nt7_nt11 nt11_nt15 nt15_nt16 nt16_np8" />
    </vehicle>
    <vehicle depart="261.82" departPos="random_free" departSpeed="max" id="f_0_2.32" speedFactor="1.1906567310835403" type="type1">
        <route edges="np2_nt2 nt2_nt3 nt3_nt7 nt7_nt11 nt11_nt15 nt15_np10" />
    </vehicle>
    <vehicle depart="261.82" departPos="random_free" departSpeed="max" id="f_0_3.32" speedFactor="1.1188429628977319" type="type1">
        <route edges="np3_nt3 nt3_nt2 nt2_nt6 nt6_nt10 nt10_nt14 nt14_np11" />
    </vehicle>
    <vehicle depart="270.01" departPos="random_free" departSpeed="max" id="f_0_2.33" speedFactor="1.1186653330358793" type="type1">
        <route edges="np2_nt2 nt2_nt3 nt3_nt7 nt7_nt11 nt11_nt15 nt15_np10" />
    </vehicle>
    <vehicle depart="270.01" departPos="random_free" departSpeed="max" id="f_0_3.33" speedFactor="1.0518550872634607" type="type1">
        <route edges="np3_nt3 nt3_nt2 nt2_nt6 nt6_nt10 nt10_nt14 nt14_np11" />
    </vehicle>
    <vehicle depart="272.72" departPos="random_free" departSpeed="max" id="f_0_0.20" speedFactor="1.1217223232015285" type="type1">
        <route edges="np13_nt13 nt13_nt14 nt14_nt15 nt15_nt11 nt11_nt7 nt7_nt3 nt3_nt4 nt4_np5" />
    </vehicle>
    <vehicle depart="272.72" departPos="random_free" departSpeed="max" id="f_0_1.20" speedFactor="1.0968018612912607" type="type1">
        <route edges="np16_nt1 nt1_nt2 nt2_nt3 nt3_nt7 nt7_nt11 nt11_nt15 nt15_nt16 nt16_np8" />
    </vehicle>
    <vehicle depart="278.19" departPos="random_free" departSpeed="max" id="f_0_2.34" speedFactor="1.1924559349986614" type="type1">
        <route edges="np2_nt2 nt2_nt3 nt3_nt7 nt7_nt11 nt11_nt15 nt15_np10" />
    </vehicle>
    <vehicle depart="278.19" departPos="random_free" departSpeed="max" id="f_0_3.34" speedFactor="1.0920278228923126" type="type1">
        <route edges="np3_nt3 nt3_nt2 nt2_nt6 nt6_nt10 nt10_nt14 nt14_np11" />
    </vehicle>
    <vehicle depart="286.36" departPos="random_free" departSpeed="max" id="f_0_0.21" speedFactor="1.1398492704150038" type="type1">
        <route edges="np13_nt13 nt13_nt14 nt14_nt15 nt15_nt11 nt11_nt7 nt7_nt3 nt3_nt4 nt4_np5" />
    </vehicle>
    <vehicle depart="286.36" departPos="random_free" departSpeed="max" id="f_0_1.21" speedFactor="1.0543205660529034" type="type1">
        <route edges="np16_nt1 nt1_nt2 nt2_nt3 nt3_nt7 nt7_nt11 nt11_nt15 nt15_nt16 nt16_np8" />
    </vehicle>
    <vehicle depart="286.37" departPos="random_free" departSpeed="max" id="f_0_2.35" speedFactor="1.054773133936329" type="type1">
        <route edges="np2_nt2 nt2_nt3 nt3_nt7 nt7_nt11 nt11_nt15 nt15_np10" />
    </vehicle>
    <vehicle depart="286.37" departPos="random_free" departSpeed="max" id="f_0_3.35" speedFactor="1.1174691098857514" type="type1">
        <route edges="np3_nt3 nt3_nt2 nt2_nt6 nt6_nt10 nt10_nt14 nt14_np11" />
    </vehicle>
    <vehicle depart="294.55" departPos="random_free" departSpeed="max" id="f_0_2.36" speedFactor="1.1854943914862746" type="type1">
        <route edges="np2_nt2 nt2_nt3 nt3_nt7 nt7_nt11 nt11_nt15 nt15_np10" />
    </vehicle>
    <vehicle depart="294.55" departPos="random_free" departSpeed="max" id="f_0_3.36" speedFactor="1.0433797546863355" type="type1">
        <route edges="np3_nt3 nt3_nt2 nt2_nt6 nt6_nt10 nt10_nt14 nt14_np11" />
    </vehicle>
    <vehicle depart="299.99" departPos="random_free" departSpeed="max" id="f_0_0.22" speedFactor="1.1049348506552032" type="type1">
        <route edges="np13_nt13 nt13_nt14 nt14_nt15 nt15_nt11 nt11_nt7 nt7_nt3 nt3_nt4 nt4_np5" />
    </vehicle>
    <vehicle depart="299.99" departPos="random_free" departSpeed="max" id="f_0_1.22" speedFactor="1.0802311135126454" type="type1">
        <route edges="np16_nt1 nt1_nt2 nt2_nt3 nt3_nt7 nt7_nt11 nt11_nt15 nt15_nt16 nt16_np8" />
    </vehicle>
    <vehicle depart="300.00" departPos="random_free" departSpeed="max" id="f_1_0.0" speedFactor="1.1989586346198173" type="type1">
        <route edges="np13_nt13 nt13_nt14 nt14_nt15 nt15_nt11 nt11_nt7 nt7_nt3 nt3_nt4 nt4_np5" />
    </vehicle>
    <vehicle depart="300.00" departPos="random_free" departSpeed="max" id="f_1_1.0" speedFactor="1.100508333562998" type="type1">
        <route edges="np16_nt1 nt1_nt2 nt2_nt3 nt3_nt7 nt7_nt11 nt11_nt15 nt15_nt16 nt16_np8" />
    </vehicle>
    <vehicle depart="300.00" departPos="random_free" departSpeed="max" id="f_1_2.0" speedFactor="1.165775532412144" type="type1">
        <route edges="np2_nt2 nt2_nt3 nt3_nt7 nt7_nt11 nt11_nt15 nt15_np10" />
    </vehicle>
    <vehicle depart="300.00" departPos="random_free" departSpeed="max" id="f_1_3.0" speedFactor="1.0842424584362291" type="type1">
        <route edges="np3_nt3 nt3_nt2 nt2_nt6 nt6_nt10 nt10_nt14 nt14_np11" />
    </vehicle>
    <vehicle depart="304.68" departPos="random_free" departSpeed="max" id="f_1_2.1" speedFactor="1.1163056954786712" type="type1">
        <route edges="np2_nt2 nt2_nt3 nt3_nt7 nt7_nt11 nt11_nt15 nt15_np10" />
    </vehicle>
    <vehicle depart="304.68" departPos="random_free" departSpeed="max" id="f_1_3.1" speedFactor="1.0980149675561672" type="type1">
        <route edges="np3_nt3 nt3_nt2 nt2_nt6 nt6_nt10 nt10_nt14 nt14_np11" />
    </vehicle>
    <vehicle depart="307.81" departPos="random_free" departSpeed="max" id="f_1_0.1" speedFactor="1.0938940613476926" type="type1">
        <route edges="np13_nt13 nt13_nt14 nt14_nt15 nt15_nt11 nt11_nt7 nt7_nt3 nt3_nt4 nt4_np5" />
    </vehicle>
    <vehicle depart="307.81" departPos="random_free" departSpeed="max" id="f_1_1.1" speedFactor="1.117700303350091" type="type1">
        <route edges="np16_nt1 nt1_nt2 nt2_nt3 nt3_nt7 nt7_nt11 nt11_nt15 nt15_nt16 nt16_np8" />
    </vehicle>