<routes xmlns:xsi="http://www.w3.org/2001/XMLSchema-instance" xsi:noNamespaceSchemaLocation="http://sumo.dlr.de/xsd/routes_file.xsd">
    <vType accel="5" decel="10" id="type1" length="5.00" />
    <vehicle depart="0.00" departPos="random_free" departSpeed="max" id="f_0_0.0" speedFactor="0.9965425190411121" type="type1">
        <route edges="np13_nt13 nt13_nt14 nt14_nt15 nt15_nt11 nt11_nt7 nt7_nt3 nt3_nt4 nt4_np5" />
    </vehicle>
    <vehicle depart="0.00" departPos="random_free" departSpeed="max" id="f_0_1.0" speedFactor="0.858656886991525" type="type1">
        <route edges="np16_nt1 nt1_nt2 nt2_nt3 nt3_nt7 nt7_nt11 nt11_nt15 nt15_nt16 nt16_np8" />
    </vehicle>
    <vehicle depart="0.00" departPos="random_free" departSpeed="max" id="f_0_2.0" speedFactor="1.0117072475886975" type="type1">
        <route edges="np2_nt2 nt2_nt3 nt3_nt7 nt7_nt11 nt11_nt15 nt15_np10" />
    </vehicle>
    <vehicle depart="0.00" departPos="random_free" departSpeed="max" id="f_0_3.0" speedFactor="1.0086818419026817" type="type1">
        <route edges="np3_nt3 nt3_nt2 nt2_nt6 nt6_nt10 nt10_nt14 nt14_np11" />
    </vehicle>
    <vehicle depart="8.18" departPos="random_free" departSpeed="max" id="f_0_2.1" speedFactor="0.9899521702762233" type="type1">
        <route edges="np2_nt2 nt2_nt3 nt3_nt7 nt7_nt11 nt11_nt15 nt15_np10" />
    </vehicle>
    <vehicle depart="8.18" departPos="random_free" departSpeed="max" id="f_0_3.1" speedFactor="1.0729638235489178" type="type1">
        <route edges="np3_nt3 nt3_nt2 nt2_nt6 nt6_nt10 nt10_nt14 nt14_np11" />
    </vehicle>
    <vehicle depart="13.64" departPos="random_free" departSpeed="max" id="f_0_0.1" speedFactor="1.024751149353192" type="type1">
        <route edges="np13_nt13 nt13_nt14 nt14_nt15 nt15_nt11 nt11_nt7 nt7_nt3 nt3_nt4 nt4_np5" />
    </vehicle>
    <vehicle depart="13.64" departPos="random_free" departSpeed="max" id="f_0_1.1" speedFactor="0.9577365706760449" type="type1">
        <route edges="np16_nt1 nt1_nt2 nt2_nt3 nt3_nt7 nt7_nt11 nt11_nt15 nt15_nt16 nt16_np8" />
    </vehicle>
    <vehicle depart="16.36" departPos="random_free" departSpeed="max" id="f_0_2.2" speedFactor="1.0186395791009035" type="type1">
        <route edges="np2_nt2 nt2_nt3 nt3_nt7 nt7_nt11 nt11_nt15 nt15_np10" />
    </vehicle>
    <vehicle depart="16.36" departPos="random_free" departSpeed="max" id="f_0_3.2" speedFactor="1.0110722380932509" type="type1">
        <route edges="np3_nt3 nt3_nt2 nt2_nt6 nt6_nt10 nt10_nt14 nt14_np11" />
    </vehicle>
    <vehicle depart="24.55" departPos="random_free" departSpeed="max" id="f_0_2.3" speedFactor="0.8872279629699793" type="type1">
        <route edges="np2_nt2 nt2_nt3 nt3_nt7 nt7_nt11 nt11_nt15 nt15_np10" />
    </vehicle>
    <vehicle depart="24.55" departPos="random_free" departSpeed="max" id="f_0_3.3" speedFactor="0.8856828253936827" type="type1">
        <route edges="np3_nt3 nt3_nt2 nt2_nt6 nt6_nt10 nt10_nt14 nt14_np11" />
    </vehicle>
    <vehicle depart="27.27" departPos="random_free" departSpeed="max" id="f_0_0.2" speedFactor="1.0165237917358871" type="type1">
        <route edges="np13_nt13 nt13_nt14 nt14_nt15 nt15_nt11 nt11_nt7 nt7_nt3 nt3_nt4 nt4_np5" />
    </vehicle>
    <vehicle depart="27.27" departPos="random_free" departSpeed="max" id="f_0_1.2" speedFactor="1.1749801832758024" type="type1">
        <route edges="np16_nt1 nt1_nt2 nt2_nt3 nt3_nt7 nt7_nt11 nt11_nt15 nt15_nt16 nt16_np8" />
    </vehicle>
    <vehicle depart="32.73" departPos="random_free" departSpeed="max" id="f_0_2.4" speedFactor="0.999966105561652" type="type1">
        <route edges="np2_nt2 nt2_nt3 nt3_nt7 nt7_nt11 nt11_nt15 nt15_np10" />
    </vehicle>
    <vehicle depart="32.73" departPos="random_free" departSpeed="max" id="f_0_3.4" speedFactor="0.9037454545304979" type="type1">
        <route edges="np3_nt3 nt3_nt2 nt2_nt6 nt6_nt10 nt10_nt14 nt14_np11" />
    </vehicle>
    <vehicle depart="40.91" departPos="random_free" departSpeed="max" id="f_0_0.3" speedFactor="0.9296416212272846" type="type1">
        <route edges="np13_nt13 nt13_nt14 nt14_nt15 nt15_nt11 nt11_nt7 nt7_nt3 nt3_nt4 nt4_np5" />
    </vehicle>
    <vehicle depart="40.91" departPos="random_free" departSpeed="max" id="f_0_1.3" speedFactor="1.0056021851765222" type="type1">
        <route edges="np16_nt1 nt1_nt2 nt2_nt3 nt3_nt7 nt7_nt11 nt11_nt15 nt15_nt16 nt16_np8" />
    </vehicle>
    <vehicle depart="40.91" departPos="random_free" departSpeed="max" id="f_0_2.5" speedFactor="1.0069706564138388" type="type1">
        <route edges="np2_nt2 nt2_nt3 nt3_nt7 nt7_nt11 nt11_nt15 nt15_np10" />
    </vehicle>
    <vehicle depart="40.91" departPos="random_free" departSpeed="max" id="f_0_3.5" speedFactor="0.9669645890066723" type="type1">
        <route edges="np3_nt3 nt3_nt2 nt2_nt6 nt6_nt10 nt10_nt14 nt14_np11" />
    </vehicle>
    <vehicle depart="49.09" departPos="random_free" departSpeed="max" id="f_0_2.6" speedFactor="1.1511361640997868" type="type1">
        <route edges="np2_nt2 nt2_nt3 nt3_nt7 nt7_nt11 nt11_nt15 nt15_np10" />
    </vehicle>
    <vehicle depart="49.09" departPos="random_free" departSpeed="max" id="f_0_3.6" speedFactor="0.8315233336675419" type="type1">
        <route edges="np3_nt3 nt3_nt2 nt2_nt6 nt6_nt10 nt10_nt14 nt14_np11" />
    </vehicle>
    <vehicle depart="54.54" departPos="random_free" departSpeed="max" id="f_0_0.4" speedFactor="1.03723880475839" type="type1">
        <route edges="np13_nt13 nt13_nt14 nt14_nt15 nt15_nt11 nt11_nt7 nt7_nt3 nt3_nt4 nt4_np5" />
    </vehicle>
    <vehicle depart="54.54" departPos="random_free" departSpeed="max" id="f_0_1.4" speedFactor="0.9604908438072284" type="type1">
        <route edges="np16_nt1 nt1_nt2 nt2_nt3 nt3_nt7 nt7_nt11 nt11_nt15 nt15_nt16 nt16_np8" />
    </vehicle>
    <vehicle depart="57.27" departPos="random_free" departSpeed="max" id="f_0_2.7" speedFactor="0.9332181493814397" type="type1">
        <route edges="np2_nt2 nt2_nt3 nt3_nt7 nt7_nt11 nt11_nt15 nt15_np10" />
    </vehicle>
    <vehicle depart="57.27" departPos="random_free" departSpeed="max" id="f_0_3.7" speedFactor="0.8970842344794748" type="type1">
        <route edges="np3_nt3 nt3_nt2 nt2_nt6 nt6_nt10 nt10_nt14 nt14_np11" />
    </vehicle>
    <vehicle depart="65.46" departPos="random_free" departSpeed="max" id="f_0_2.8" speedFactor="1.0092454554536312" type="type1">
        <route edges="np2_nt2 nt2_nt3 nt3_nt7 nt7_nt11 nt11_nt15 nt15_np10" />
    </vehicle>
    <vehicle depart="65.46" departPos="random_free" departSpeed="max" id="f_0_3.8" speedFactor="0.8648337932269345" type="type1">
        <route edges="np3_nt3 nt3_nt2 nt2_nt6 nt6_nt10 nt10_nt14 nt14_np11" />
    </vehicle>
    <vehicle depart="68.18" departPos="random_free" departSpeed="max" id="f_0_0.5" speedFactor="0.8152235934669383" type="type1">
        <route edges="np13_nt13 nt13_nt14 nt14_nt15 nt15_nt11 nt11_nt7 nt7_nt3 nt3_nt4 nt4_np5" />
    </vehicle>
    <vehicle depart="68.18" departPos="random_free" departSpeed="max" id="f_0_1.5" speedFactor="1.0458594590086796" type="type1">
        <route edges="np16_nt1 nt1_nt2 nt2_nt3 nt3_nt7 nt7_nt11 nt11_nt15 nt15_nt16 nt16_np8" />
    </vehicle>
    <vehicle depart="73.64" departPos="random_free" departSpeed="max" id="f_0_2.9" speedFactor="1.006867001368506" type="type1">
        <route edges="np2_nt2 nt2_nt3 nt3_nt7 nt7_nt11 nt11_nt15 nt15_np10" />
    </vehicle>
    <vehicle depart="73.64" departPos="random_free" departSpeed="max" id="f_0_3.9" speedFactor="0.9814953815068248" type="type1">
        <route edges="np3_nt3 nt3_nt2 nt2_nt6 nt6_nt10 nt10_nt14 nt14_np11" />
    </vehicle>
    <vehicle depart="81.82" departPos="random_free" departSpeed="max" id="f_0_0.6" speedFactor="1.1131821815882943" type="type1">
        <route edges="np13_nt13 nt13_nt14 nt14_nt15 nt15_nt11 nt11_nt7 nt7_nt3 nt3_nt4 nt4_np5" />
    </vehicle>
    <vehicle depart="81.82" departPos="random_free" departSpeed="max" id="f_0_1.6" speedFactor="1.0811329568518393" type="type1">
        <route edges="np16_nt1 nt1_nt2 nt2_nt3 nt3_nt7 nt7_nt11 nt11_nt15 nt15_nt16 nt16_np8" />
    </vehicle>
    <vehicle depart="81.82" departPos="random_free" departSpeed="max" id="f_0_2.10" speedFactor="1.0342047541598165" type="type1">
        <route edges="np2_nt2 nt2_nt3 nt3_nt7 nt7_nt11 nt11_nt15 nt15_np10" />
    </vehicle>
    <vehicle depart="81.82" departPos="random_free" departSpeed="max" id="f_0_3.10" speedFactor="1.0327300913166444" type="type1">
        <route edges="np3_nt3 nt3_nt2 nt2_nt6 nt6_nt10 nt10_nt14 nt14_np11" />
    </vehicle>
    <vehicle depart="90.00" departPos="random_free" departSpeed="max" id="f_0_2.11" speedFactor="1.101737126066753" type="type1">
        <route edges="np2_nt2 nt2_nt3 nt3_nt7 nt7_nt11 nt11_nt15 nt15_np10" />
    </vehicle>
    <vehicle depart="90.00" departPos="random_free" departSpeed="max" id="f_0_3.11" speedFactor="0.9495400529118734" type="type1">
        <route edges="np3_nt3 nt3_nt2 nt2_nt6 nt6_nt10 nt10_nt14 nt14_np11" />
    </vehicle>
    <vehicle depart="95.45" departPos="random_free" departSpeed="max" id="f_0_0.7" speedFactor="1.0910388963353657" type="type1">
        <route edges="np13_nt13 nt13_nt14 nt14_nt15 nt15_nt11 nt11_nt7 nt7_nt3 nt3_nt4 nt4_np5" />
    </vehicle>
    <vehicle depart="95.45" departPos="random_free" departSpeed="max" id="f_0_1.7" speedFactor="1.1032975122409003" type="type1">
        <route edges="np16_nt1 nt1_nt2 nt2_nt3 nt3_nt7 nt7_nt11 nt11_nt15 nt15_nt16 nt16_np8" />
    </vehicle>
    <vehicle depart="98.18" departPos="random_free" departSpeed="max" id="f_0_2.12" speedFactor="0.9082590319678077" type="type1">
        <route edges="np2_nt2 nt2_nt3 nt3_nt7 nt7_nt11 nt11_nt15 nt15_np10" />
    </vehicle>
    <vehicle depart="98.18" departPos="random_free" departSpeed="max" id="f_0_3.12" speedFactor="1.0345251913493996" type="type1">
        <route edges="np3_nt3 nt3_nt2 nt2_nt6 nt6_nt10 nt10_nt14 nt14_np11" />
    </vehicle>
    <vehicle depart="106.37" departPos="random_free" departSpeed="max" id="f_0_2.13" speedFactor="0.8953830731660979" type="type1">
        <route edges="np2_nt2 nt2_nt3 nt3_nt7 nt7_nt11 nt11_nt15 nt15_np10" />
    </vehicle>
    <vehicle depart="106.37" departPos="random_free" departSpeed="max" id="f_0_3.13" speedFactor="0.9151810548288627" type="type1">
        <route edges="np3_nt3 nt3_nt2 nt2_nt6 nt6_nt10 nt10_nt14 nt14_np11" />
    </vehicle>
    <vehicle depart="109.09" departPos="random_free" departSpeed="max" id="f_0_0.8" speedFactor="1.0254837767038212" type="type1">
        <route edges="np13_nt13 nt13_nt14 nt14_nt15 nt15_nt11 nt11_nt7 nt7_nt3 nt3_nt4 nt4_np5" />
    </vehicle>
    <vehicle depart="109.09" departPos="random_free" departSpeed="max" id="f_0_1.8" speedFactor="1.1851923637654027" type="type1">
        <route edges="np16_nt1 nt1_nt2 nt2_nt3 nt3_nt7 nt7_nt11 nt11_nt15 nt15_nt16 nt16_np8" />
    </vehicle>
    <vehicle depart="114.55" departPos="random_free" departSpeed="max" id="f_0_2.14" speedFactor="0.9797933614775761" type="type1">
        <route edges="np2_nt2 nt2_nt3 nt3_nt7 nt7_nt11 nt11_nt15 nt15_np10" />
    </vehicle>
    <vehicle depart="114.55" departPos="random_free" departSpeed="max" id="f_0_3.14" speedFactor="1.0675045107080319" type="type1">
        <route edges="np3_nt3 nt3_nt2 nt2_nt6 nt6_nt10 nt10_nt14 nt14_np11" />
    </vehicle>
    <vehicle depart="122.72" departPos="random_free" departSpeed="max" id="f_0_0.9" speedFactor="0.9391609959865949" type="type1">
        <route edges="np13_nt13 nt13_nt14 nt14_nt15 nt15_nt11 nt11_nt7 nt7_nt3 nt3_nt4 nt4_np5" />
    </vehicle>
    <vehicle depart="122.72" departPos="random_free" departSpeed="max" id="f_0_1.9" speedFactor="1.119921777184441" type="type1">
        <route edges="np16_nt1 nt1_nt2 nt2_nt3 nt3_nt7 nt7_nt11 nt11_nt15 nt15_nt16 nt16_np8" />
    </vehicle>
    <vehicle depart="122.73" departPos="random_free" departSpeed="max" id="f_0_2.15" speedFactor="1.1102956297190127" type="type1">
        <route edges="np2_nt2 nt2_nt3 nt3_nt7 nt7_nt11 nt11_nt15 nt15_np10" />
    </vehicle>
    <vehicle depart="122.73" departPos="random_free" departSpeed="max" id="f_0_3.15" speedFactor="1.0055145050035599" type="type1">
        <route edges="np3_nt3 nt3_nt2 nt2_nt6 nt6_nt10 nt10_nt14 nt14_np11" />
    </vehicle>
    <vehicle depart="130.91" departPos="random_free" departSpeed="max" id="f_0_2.16" speedFactor="1.0549783344786312" type="type1">
        <route edges="np2_nt2 nt2_nt3 nt3_nt7 nt7_nt11 nt11_nt15 nt15_np10" />
    </vehicle>
    <vehicle depart="130.91" departPos="random_free" departSpeed="max" id="f_0_3.16" speedFactor="1.0103015157425677" type="type1">
        <route edges="np3_nt3 nt3_nt2 nt2_nt6 nt6_nt10 nt10_nt14 nt14_np11" />
    </vehicle>
    <vehicle depart="136.36" departPos="random_free" departSpeed="max" id="f_0_0.10" speedFactor="1.0297203762213099" type="type1">
        <route edges="np13_nt13 nt13_nt14 nt14_nt15 nt15_nt11 nt11_nt7 nt7_nt3 nt3_nt4 nt4_np5" />
    </vehicle>
    <vehicle depart="136.36" departPos="random_free" departSpeed="max" id="f_0_1.10" speedFactor="1.173709826535896" type="type1">
        <route edges="np16_nt1 nt1_nt2 nt2_nt3 nt3_nt7 nt7_nt11 nt11_nt15 nt15_nt16 nt16_np8" />
    </vehicle>
    <vehicle depart="139.09" departPos="random_free" departSpeed="max" id="f_0_2.17" speedFactor="0.9316104103770476" type="type1">
        <route edges="np2_nt2 nt2_nt3 nt3_nt7 nt7_nt11 nt11_nt15 nt15_np10" />
    </vehicle>
    <vehicle depart="139.09" departPos="random_free" departSpeed="max" id="f_0_3.17" speedFactor="0.96102158901715" type="type1">
        <route edges="np3_nt3 nt3_nt2 nt2_nt6 nt6_nt10 nt10_nt14 nt14_np11" />
    </vehicle>
    <vehicle depart="147.28" departPos="random_free" departSpeed="max" id="f_0_2.18" speedFactor="0.9685813724896127" type="type1">
        <route edges="np2_nt2 nt2_nt3 nt3_nt7 nt7_nt11 nt11_nt15 nt15_np10" />
    </vehicle>
    <vehicle depart="147.28" departPos="random_free" departSpeed="max" id="f_0_3.18" speedFactor="0.9979108788678215" type="type1">
        <route edges="np3_nt3 nt3_nt2 nt2_nt6 nt6_nt10 nt10_nt14 nt14_np11" />
    </vehicle>
    <vehicle depart="150.00" departPos="random_free" departSpeed="max" id="f_0_0.11" speedFactor="0.938678174036725" type="type1">
        <route edges="np13_nt13 nt13_nt14 nt14_nt15 nt15_nt11 nt11_nt7 nt7_nt3 nt3_nt4 nt4_np5" />
    </vehicle>
    <vehicle depart="150.00" departPos="random_free" departSpeed="max" id="f_0_1.11" speedFactor="0.8919536160518133" type="type1">
        <route edges="np16_nt1 nt1_nt2 nt2_nt3 nt3_nt7 nt7_nt11 nt11_nt15 nt15_nt16 nt16_np8" />
    </vehicle>
    <vehicle depart="155.46" departPos="random_free" departSpeed="max" id="f_0_2.19" speedFactor="0.9901205140478411" type="type1">
        <route edges="np2_nt2 nt2_nt3 nt3_nt7 nt7_nt11 nt11_nt15 nt15_np10" />
    </vehicle>
    <vehicle depart="155.46" departPos="random_free" departSpeed="max" id="f_0_3.19" speedFactor="1.0844731965953707" type="type1">
        <route edges="np3_nt3 nt3_nt2 nt2_nt6 nt6_nt10 nt10_nt14 nt14_np11" />
    </vehicle>
    <vehicle depart="163.63" departPos="random_free" departSpeed="max" id="f_0_0.12" speedFactor="0.8705015547254097" type="type1">
        <route edges="np13_nt13 nt13_nt14 nt14_nt15 nt15_nt11 nt11_nt7 nt7_nt3 nt3_nt4 nt4_np5" />
    </vehicle>
    <vehicle depart="163.63" departPos="random_free" departSpeed="max" id="f_0_1.12" speedFactor="1.1484779510838539" type="type1">
        <route edges="np16_nt1 nt1_nt2 nt2_nt3 nt3_nt7 nt7_nt11 nt11_nt15 nt15_nt16 nt16_np8" />
    </vehicle>
    <vehicle depart="163.64" departPos="random_free" departSpeed="max" id="f_0_2.20" speedFactor="1.1653709876014111" type="type1">
        <route edges="np2_nt2 nt2_nt3 nt3_nt7 nt7_nt11 nt11_nt15 nt15_np10" />
    </vehicle>
    <vehicle depart="163.64" departPos="random_free" departSpeed="max" id="f_0_3.20" speedFactor="0.9113136770417615" type="type1">
        <route edges="np3_nt3 nt3_nt2 nt2_nt6 nt6_nt10 nt10_nt14 nt14_np11" />
    </vehicle>
    <vehicle depart="171.82" departPos="random_free" departSpeed="max" id="f_0_2.21" speedFactor="0.9811309109318058" type="type1">
        <route edges="np2_nt2 nt2_nt3 nt3_nt7 nt7_nt11 nt11_nt15 nt15_np10" />
    </vehicle>
    <vehicle depart="171.82" departPos="random_free" departSpeed="max" id="f_0_3.21" speedFactor="0.8750751623663549" type="type1">
        <route edges="np3_nt3 nt3_nt2 nt2_nt6 nt6_nt10 nt10_nt14 nt14_np11" />
    </vehicle>
    <vehicle depart="177.27" departPos="random_free" departSpeed="max" id="f_0_0.13" speedFactor="0.9652134122104782" type="type1">
        <route edges="np13_nt13 nt13_nt14 nt14_nt15 nt15_nt11 nt11_nt7 nt7_nt3 nt3_nt4 nt4_np5" />
    </vehicle>
    <vehicle depart="177.27" departPos="random_free" departSpeed="max" id="f_0_1.13" speedFactor="0.9997632005670299" type="type1">
        <route edges="np16_nt1 nt1_nt2 nt2_nt3 nt3_nt7 nt7_nt11 nt11_nt15 nt15_nt16 nt16_np8" />
    </vehicle>
    <vehicle depart="180.00" departPos="random_free" departSpeed="max" id="f_0_2.22" speedFactor="0.9624634110799922" type="type1">
        <route edges="np2_nt2 nt2_nt3 nt3_nt7 nt7_nt11 nt11_nt15 nt15_np10" />
    </vehicle>
    <vehicle depart="180.00" departPos="random_free" departSpeed="max" id="f_0_3.22" speedFactor="0.8931990398343189" type="type1">
        <route edges="np3_nt3 nt3_nt2 nt2_nt6 nt6_nt10 nt10_nt14 nt14_np11" />
    </vehicle>
    <vehicle depart="188.19" departPos="random_free" departSpeed="max" id="f_0_2.23" speedFactor="0.8351037706149296" type="type1">
        <route edges="np2_nt2 nt2_nt3 nt3_nt7 nt7_nt11 nt11_nt15 nt15_np10" />
    </vehicle>
    <vehicle depart="188.19" departPos="random_free" departSpeed="max" id="f_0_3.23" speedFactor="1.1137327156857477" type="type1">
        <route edges="np3_nt3 nt3_nt2 nt2_nt6 nt6_nt10 nt10_nt14 nt14_np11" />
    </vehicle>
    <vehicle depart="190.90" departPos="random_free" departSpeed="max" id="f_0_0.14" speedFactor="0.965908497234221" type="type1">
        <route edges="np13_nt13 nt13_nt14 nt14_nt15 nt15_nt11 nt11_nt7 nt7_nt3 nt3_nt4 nt4_np5" />
    </vehicle>
    <vehicle depart="190.90" departPos="random_free" departSpeed="max" id="f_0_1.14" speedFactor="0.9574475417043928" type="type1">
        <route edges="np16_nt1 nt1_nt2 nt2_nt3 nt3_nt7 nt7_nt11 nt11_nt15 nt15_nt16 nt16_np8" />
    </vehicle>
    <vehicle depart="196.37" departPos="random_free" departSpeed="max" id="f_0_2.24" speedFactor="1.1062059552687842" type="type1">
        <route edges="np2_nt2 nt2_nt3 nt3_nt7 nt7_nt11 nt11_nt15 nt15_np10" />
    </vehicle>
    <vehicle depart="196.37" departPos="random_free" departSpeed="max" id="f_0_3.24" speedFactor="1.010714687010307" type="type1">
        <route edges="np3_nt3 nt3_nt2 nt2_nt6 nt6_nt10 nt10_nt14 nt14_np11" />
    </vehicle>
    <vehicle depart="204.54" departPos="random_free" departSpeed="max" id="f_0_0.15" speedFactor="0.8500598957388527" type="type1">
        <route edges="np13_nt13 nt13_nt14 nt14_nt15 nt15_nt11 nt11_nt7 nt7_nt3 nt3_nt4 nt4_np5" />
    </vehicle>
    <vehicle depart="204.54" departPos="random_free" departSpeed="max" id="f_0_1.15" speedFactor="1.097722393564648" type="type1">
        <route edges="np16_nt1 nt1_nt2 nt2_nt3 nt3_nt7 nt7_nt11 nt11_nt15 nt15_nt16 nt16_np8" />
    </vehicle>
    <vehicle depart="204.55" departPos="random_free" departSpeed="max" id="f_0_2.25" speedFactor="0.9855562583203649" type="type1">
        <route edges="np2_nt2 nt2_nt3 nt3_nt7 nt7_nt11 nt11_nt15 nt15_np10" />
    </vehicle>
    <vehicle depart="204.55" departPos="random_free" departSpeed="max" id="f_0_3.25" speedFactor="0.9720726732006381" type="type1">
        <route edges="np3_nt3 nt3_nt2 nt2_nt6 nt6_nt10 nt10_nt14 nt14_np11" />
    </vehicle>
    <vehicle depart="212.73" departPos="random_free" departSpeed="max" id="f_0_2.26" speedFactor="1.070822054209663" type="type1">
        <route edges="np2_nt2 nt2_nt3 nt3_nt7 nt7_nt11 nt11_nt15 nt15_np10" />
    </vehicle>
    <vehicle depart="212.73" departPos="random_free" departSpeed="max" id="f_0_3.26" speedFactor="0.9226151665417689" type="type1">
        <route edges="np3_nt3 nt3_nt2 nt2_nt6 nt6_nt10 nt10_nt14 nt14_np11" />
    </vehicle>
    <vehicle depart="218.18" departPos="random_free" departSpeed="max" id="f_0_0.16" speedFactor="0.8898936078333386" type="type1">
        <route edges="np13_nt13 nt13_nt14 nt14_nt15 nt15_nt11 nt11_nt7 nt7_nt3 nt3_nt4 nt4_np5" />
    </vehicle>
    <vehicle depart="218.18" departPos="random_free" departSpeed="max" id="f_0_1.16" speedFactor="1.0689812653715378" type="type1">
        <route edges="np16_nt1 nt1_nt2 nt2_nt3 nt3_nt7 nt7_nt11 nt11_nt15 nt15_nt16 nt16_np8" />
    </vehicle>
    <vehicle depart="220.91" departPos="random_free" departSpeed="max" id="f_0_2.27" speedFactor="1.0067517626631668" type="type1">
        <route edges="np2_nt2 nt2_nt3 nt3_nt7 nt7_nt11 nt11_nt15 nt15_np10" />
    </vehicle>
    <vehicle depart="220.91" departPos="random_free" departSpeed="max" id="f_0_3.27" speedFactor="1.0046632830649502" type="type1">
        <route edges="np3_nt3 nt3_nt2 nt2_nt6 nt6_nt10 nt10_nt14 nt14_np11" />
    </vehicle>
    <vehicle depart="229.10" departPos="random_free" departSpeed="max" id="f_0_2.28" speedFactor="0.9623020559151463" type="type1">
        <route edges="np2_nt2 nt2_nt3 nt3_nt7 nt7_nt11 nt11_nt15 nt15_np10" />
    </vehicle>
    <vehicle depart="229.10" departPos="random_free" departSpeed="max" id="f_0_3.28" speedFactor="0.9546988395839735" type="type1">
        <route edges="np3_nt3 nt3_nt2 nt2_nt6 nt6_nt10 nt10_nt14 nt14_np11" />
    </vehicle>
    <vehicle depart="231.81" departPos="random_free" departSpeed="max" id="f_0_0.17" speedFactor="0.9591478709322643" type="type1">
        <route edges="np13_nt13 nt13_nt14 nt14_nt15 nt15_nt11 nt11_nt7 nt7_nt3 nt3_nt4 nt4_np5" />
    </vehicle>
    <vehicle depart="231.81" departPos="random_free" departSpeed="max" id="f_0_1.17" speedFactor="0.9345170014416792" type="type1">
        <route edges="np16_nt1 nt1_nt2 nt2_nt3 nt3_nt7 nt7_nt11 nt11_nt15 nt15_nt16 nt16_np8" />
    </vehicle>
    <vehicle depart="237.28" departPos="random_free" departSpeed="max" id="f_0_2.29" speedFactor="0.9750740090028118" type="type1">
        <route edges="np2_nt2 nt2_nt3 nt3_nt7 nt7_nt11 nt11_nt15 nt15_np10" />
    </vehicle>
    <vehicle depart="237.28" departPos="random_free" departSpeed="max" id="f_0_3.29" speedFactor="0.9986460598963002" type="type1">
        <route edges="np3_nt3 nt3_nt2 nt2_nt6 nt6_nt10 nt10_nt14 nt14_np11" />
    </vehicle>
    <vehicle depart="245.45" departPos="random_free" departSpeed="max" id="f_0_0.18" speedFactor="0.8296246244473287" type="type1">
        <route edges="np13_nt13 nt13_nt14 nt14_nt15 nt15_nt11 nt11_nt7 nt7_nt3 nt3_nt4 nt4_np5" />
    </vehicle>
    <vehicle depart="245.45" departPos="random_free" departSpeed="max" id="f_0_1.18" speedFactor="0.952095414042494" type="type1">
        <route edges="np16_nt1 nt1_nt2 nt2_nt3 nt3_nt7 nt7_nt11 nt11_nt15 nt15_nt16 nt16_np8" />
    </vehicle>
    <vehicle depart="245.46" departPos="random_free" departSpeed="max" id="f_0_2.30" speedFactor="0.9937676184150381" type="type1">
        <route edges="np2_nt2 nt2_nt3 nt3_nt7 nt7_nt11 nt11_nt15 nt15_np10" />
    </vehicle>
    <vehicle depart="245.46" departPos="random_free" departSpeed="max" id="f_0_3.30" speedFactor="0.9946641496714922" type="type1">
        <route edges="np3_nt3 nt3_nt2 nt2_nt6 nt6_nt10 nt10_nt14 nt14_np11" />
    </vehicle>
    <vehicle depart="253.64" departPos="random_free" departSpeed="max" id="f_0_2.31" speedFactor="0.980643107718509" type="type1">
        <route edges="np2_nt2 nt2_nt3 nt3_nt7 nt7_nt11 nt11_nt15 nt15_np10" />
    </vehicle>
    <vehicle depart="253.64" departPos="random_free" departSpeed="max" id="f_0_3.31" speedFactor="1.1560671718357594" type="type1">
        <route edges="np3_nt3 nt3_nt2 nt2_nt6 nt6_nt10 nt10_nt14 nt14_np11" />
    </vehicle>
    <vehicle depart="259.08" departPos="random_free" departSpeed="max" id="f_0_0.19" speedFactor="1.0134248721866108" type="type1">
        <route edges="np13_nt13 nt13_nt14 nt14_nt15 nt15_nt11 nt11_nt7 nt7_nt3 nt3_nt4 nt4_np5" />
    </vehicle>
    <vehicle depart="259.08" departPos="random_free" departSpeed="max" id="f_0_1.19" speedFactor="1.0228427044840125" type="type1">
        <route edges="np16_nt1 nt1_nt2 nt2_nt3 nt3_nt7 nt7_nt11 nt11_nt15 nt15_nt16 nt16_np8" />
    </vehicle>
    <vehicle depart="261.82" departPos="random_free" departSpeed="max" id="f_0_2.32" speedFactor="1.1316179991495054" type="type1">
        <route edges="np2_nt2 nt2_nt3 nt3_nt7 nt7_nt11 nt11_nt15 nt15_np10" />
    </vehicle>
    <vehicle depart="261.82" departPos="random_free" departSpeed="max" id="f_0_3.32" speedFactor="1.110150514291165" type="type1">
        <route edges="np3_nt3 nt3_nt2 nt2_nt6 nt6_nt10 nt10_nt14 nt14_np11" />
    </vehicle>
    <vehicle depart="270.01" departPos="random_free" departSpeed="max" id="f_0_2.33" speedFactor="0.9898521815704322" type="type1">
        <route edges="np2_nt2 nt2_nt3 nt3_nt7 nt7_nt11 nt11_nt15 nt15_np10" />
    </vehicle>
    <vehicle depart="270.01" departPos="random_free" departSpeed="max" id="f_0_3.33" speedFactor="0.8488318761866438" type="type1">
        <route edges="np3_nt3 nt3_nt2 nt2_nt6 nt6_nt10 nt10_nt14 nt14_np11" />
    </vehicle>
    <vehicle depart="272.72" departPos="random_free" departSpeed="max" id="f_0_0.20" speedFactor="0.9633700554158564" type="type1">
        <route edges="np13_nt13 nt13_nt14 nt14_nt15 nt15_nt11 nt11_nt7 nt7_nt3 nt3_nt4 nt4_np5" />
    </vehicle>
    <vehicle depart="272.72" departPos="random_free" departSpeed="max" id="f_0_1.20" speedFactor="1.1188273611595438" type="type1">
        <route edges="np16_nt1 nt1_nt2 nt2_nt3 nt3_nt7 nt7_nt11 nt11_nt15 nt15_nt16 nt16_np8" />
    </vehicle>
    <vehicle depart="278.19" departPos="random_free" departSpeed="max" id="f_0_2.34" speedFactor="1.0326874741102654" type="type1">
        <route edges="np2_nt2 nt2_nt3 nt3_nt7 nt7_nt11 nt11_nt15 nt15_np10" />
    </vehicle>
    <vehicle depart="278.19" departPos="random_free" departSpeed="max" id="f_0_3.34" speedFactor="0.9868727800442576" type="type1">
        <route edges="np3_nt3 nt3_nt2 nt2_nt6 nt6_nt10 nt10_nt14 nt14_np11" />
    </vehicle>
    <vehicle depart="286.36" departPos="random_free" departSpeed="max" id="f_0_0.21" speedFactor="1.0776935505895027" type="type1">
        <route edges="np13_nt13 nt13_nt14 nt14_nt15 nt15_nt11 nt11_nt7 nt7_nt3 nt3_nt4 nt4_np5" />
    </vehicle>
    <vehicle depart="286.36" departPos="random_free" departSpeed="max" id="f_0_1.21" speedFactor="1.078200558790155" type="type1">
        <route edges="np16_nt1 nt1_nt2 nt2_nt3 nt3_nt7 nt7_nt11 nt11_nt15 nt15_nt16 nt16_np8" />
    </vehicle>
    <vehicle depart="286.37" departPos="random_free" departSpeed="max" id="f_0_2.35" speedFactor="0.8750372170219816" type="type1">
        <route edges="np2_nt2 nt2_nt3 nt3_nt7 nt7_nt11 nt11_nt15 nt15_np10" />
    </vehicle>
    <vehicle depart="286.37" departPos="random_free" departSpeed="max" id="f_0_3.35" speedFactor="1.0821052712529826" type="type1">
        <route edges="np3_nt3 nt3_nt2 nt2_nt6 nt6_nt10 nt10_nt14 nt14_np11" />
    </vehicle>
    <vehicle depart="294.55" departPos="random_free" departSpeed="max" id="f_0_2.36" speedFactor="1.033470633620379" type="type1">
        <route edges="np2_nt2 nt2_nt3 nt3_nt7 nt7_nt11 nt11_nt15 nt15_np10" />
    </vehicle>
    <vehicle depart="294.55" departPos="random_free" departSpeed="max" id="f_0_3.36" speedFactor="1.0826560132418885" type="type1">
        <route edges="np3_nt3 nt3_nt2 nt2_nt6 nt6_nt10 nt10_nt14 nt14_np11" />
    </vehicle>
    <vehicle depart="299.99" departPos="random_free" departSpeed="max" id="f_0_0.22" speedFactor="1.0438581820758746" type="type1">
        <route edges="np13_nt13 nt13_nt14 nt14_nt15 nt15_nt11 nt11_nt7 nt7_nt3 nt3_nt4 nt4_np5" />
    </vehicle>
    <vehicle depart="299.99" departPos="random_free" departSpeed="max" id="f_0_1.22" speedFactor="1.0172549352110638" type="type1">
        <route edges="np16_nt1 nt1_nt2 nt2_nt3 nt3_nt7 nt7_nt11 nt11_nt15 nt15_nt16 nt16_np8" />
    </vehicle>
    <vehicle depart="300.00" departPos="random_free" departSpeed="max" id="f_1_0.0" speedFactor="0.984953708708734" type="type1">
        <route edges="np13_nt13 nt13_nt14 nt14_nt15 nt15_nt11 nt11_nt7 nt7_nt3 nt3_nt4 nt4_np5" />
    </vehicle>
    <vehicle depart="300.00" departPos="random_free" departSpeed="max" id="f_1_1.0" speedFactor="0.9675404997742822" type="type1">
        <route edges="np16_nt1 nt1_nt2 nt2_nt3 nt3_nt7 nt7_nt11 nt11_nt15 nt15_nt16 nt16_np8" />
    </vehicle>
    <vehicle depart="300.00" departPos="random_free" departSpeed="max" id="f_1_2.0" speedFactor="0.9984023913921017" type="type1">
        <route edges="np2_nt2 nt2_nt3 nt3_nt7 nt7_nt11 nt11_nt15 nt15_np10" />
    </vehicle>
    <vehicle depart="300.00" departPos="random_free" departSpeed="max" id="f_1_3.0" speedFactor="1.1603790788096622" type="type1">
        <route edges="np3_nt3 nt3_nt2 nt2_nt6 nt6_nt10 nt10_nt14 nt14_np11" />
    </vehicle>
    <vehicle depart="304.68" departPos="random_free" departSpeed="max" id="f_1_2.1" speedFactor="1.1181588152902118" type="type1">
        <route edges="np2_nt2 nt2_nt3 nt3_nt7 nt7_nt11 nt11_nt15 nt15_np10" />
    </vehicle>
    <vehicle depart="304.68" departPos="random_free" departSpeed="max" id="f_1_3.1" speedFactor="0.9646788076107092" type="type1">
        <route edges="np3_nt3 nt3_nt2 nt2_nt6 nt6_nt10 nt10_nt14 nt14_np11" />
    </vehicle>
    <vehicle depart="307.81" departPos="random_free" departSpeed="max" id="f_1_0.1" speedFactor="1.0677269428691591" type="type1">
        <route edges="np13_nt13 nt13_nt14 nt14_nt15 nt15_nt11 nt11_nt7 nt7_nt3 nt3_nt4 nt4_np5" />
    </vehicle>
    <vehicle depart="307.81" departPos="random_free" departSpeed="max" id="f_1_1.1" speedFactor="1.005165132160584" type="type1">
        <route edges="np16_nt1 nt1_nt2 nt2_nt3 nt3_nt7 nt7_nt11 nt11_nt15 nt15_nt16 nt16_np8" />
    </vehicle>