<routes xmlns:xsi="http://www.w3.org/2001/XMLSchema-instance" xsi:noNamespaceSchemaLocation="http://sumo.dlr.de/xsd/routes_file.xsd">
	<vType id="pkw" length="4.3" minGap="1.5" speedDev="0.1" vClass="passenger" />
	<trip depart="25200.00" departSpeed="max" from="-23283579#1" id="137312_412_0" speedFactor="0.8824211233814491" to="23283436" type="pkw" />
	<trip depart="25200.00" departSpeed="max" from="-28675510#11" id="155570_420_0" speedFactor="0.9591625432211637" to="28675510#7" type="pkw" />
	<trip depart="25201.00" departSpeed="max" from="22917421#3" id="114597_403_0" speedFactor="0.8701657028356105" to="-186623965#14" type="pkw" />
	<trip depart="25204.00" departSpeed="max" from="-23283579#1" id="76230_386_0" speedFactor="0.8803318008067476" to="297047309#0" type="pkw" />
	<trip depart="25205.00" departSpeed="max" from="22959552#0" id="156485_420_0" speedFactor="0.8967600877189348" to="28675510#7" type="pkw" />
	<trip depart="25206.00" departSpeed="max" from="-23283579#1" id="110248_401_0" speedFactor="0.9212114775654748" to="297047309#0" type="pkw" />
	<trip depart="25206.00" departSpeed="max" from="-28675510#11" id="134603_411_0" speedFactor="0.8512724626640263" to="28675510#7" type="pkw" />
	<trip depart="25208.00" departSpeed="max" from="-28675510#11" id="166776_424_0" speedFactor="0.9396605820723618" to="-186623965#14" type="pkw" />
	<trip depart="25209.00" departSpeed="max" from="-186623965#18" id="137959_412_0" speedFactor="0.9272264441024387" to="-22917421#4" type="pkw" />
	<trip depart="25210.00" departSpeed="max" from="25166682#0" id="146152_416_0" speedFactor="0.9484199964422834" to="28675510#7" type="pkw" />
	<trip depart="25210.00" departSpeed="max" from="-28675510#11" id="140143_414_0" speedFactor="0.8225278388172794" to="28675510#7" type="pkw" />
	<trip depart="25211.00" departSpeed="max" from="-23283579#1" id="134167_411_0" speedFactor="0.8404347122852615" to="-186623965#14" type="pkw" />
	<trip depart="25212.00" departSpeed="max" from="-28675510#11" id="163043_422_0" speedFactor="0.957839351361032" to="8716827#0" type="pkw" />
	<trip depart="25213.00" departSpeed="max" from="-23283579#1" id="160358_421_0" speedFactor="0.9485250804697412" to="-186623965#14" type="pkw" />
	<trip depart="25214.00" departSpeed="max" from="-28675510#11" id="135663_411_0" speedFactor="0.8293605383028297" to="28675510#7" type="pkw" />
	<trip depart="25217.00" departSpeed="max" from="-28675510#11" id="149045_417_0" speedFactor="0.912165772377868" to="28675510#7" type="pkw" />
	<trip depart="25218.00" departSpeed="max" from="-23283579#1" id="142890_415_0" speedFactor="0.9219620890321725" to="23283579#1" type="pkw" />
	<trip depart="25220.00" departSpeed="max" from="22917421#3" id="158885_421_0" speedFactor="0.8379287743810846" to="28675510#7" type="pkw" />
	<trip depart="25221.00" departSpeed="max" from="-28675510#11" id="146111_416_0" speedFactor="0.9242686075469912" to="-186623965#14" type="pkw" />
	<trip depart="25221.00" departSpeed="max" from="186623965#9" id="140525_414_0" speedFactor="0.8253852361792949" to="186623965#17" type="pkw" />
	<trip depart="25224.00" departSpeed="max" from="-28675510#11" id="117517_404_0" speedFactor="0.9557905722495911" to="-186623965#14" type="pkw" />
	<trip depart="25226.00" departSpeed="max" from="186623965#9" id="119181_405_0" speedFactor="0.8358287859218146" to="42925825#0" type="pkw" />
	<trip depart="25228.00" departSpeed="max" from="186623965#9" id="133416_410_0" speedFactor="0.8434610741233672" to="42925825#0" type="pkw" />
	<trip depart="25228.00" departSpeed="max" from="-186623965#18" id="131237_409_0" speedFactor="0.8338587986713135" to="297047309#0" type="pkw" />
	<trip depart="25229.00" departSpeed="max" from="22917421#3" id="138070_412_0" speedFactor="0.9425541524508335" to="186623965#17" type="pkw" />
	<trip depart="25229.00" departSpeed="max" from="-28675510#11" id="152887_419_0" speedFactor="0.8883937359742111" to="8716827#0" type="pkw" />
	<trip depart="25232.00" departSpeed="max" from="-186623965#18" id="141355_415_0" speedFactor="0.9846659256578638" to="42925825#0" type="pkw" />
	<trip depart="25232.00" departSpeed="max" from="22917421#3" id="153496_420_0" speedFactor="0.979995787395614" to="186623965#17" type="pkw" />
	<trip depart="25232.00" departSpeed="max" from="-28675510#11" id="154212_420_0" speedFactor="0.8501955770766965" to="-186623965#14" type="pkw" />
	<trip depart="25233.00" departSpeed="max" from="-42925825#2" id="161942_421_0" speedFactor="0.9731064283053094" to="42925825#0" type="pkw" />
	<trip depart="25233.00" departSpeed="max" from="22959550#0" id="166162_424_0" speedFactor="0.8590901019920973" to="28675510#7" type="pkw" />
	<trip depart="25234.00" departSpeed="max" from="22917421#3" id="155353_420_0" speedFactor="0.825825581928818" to="186623965#17" type="pkw" />
	<trip depart="25236.00" departSpeed="max" from="22917421#3" id="124742_406_0" speedFactor="0.8107787538369617" to="28675493" type="pkw" />
	<trip depart="25236.00" departSpeed="max" from="-186623965#18" id="131071_409_0" speedFactor="0.9069086891540209" to="42925825#0" type="pkw" />
	<trip depart="25237.00" departSpeed="max" from="-28675510#11" id="134428_411_0" speedFactor="0.9079487496798697" to="28675510#7" type="pkw" />
	<trip depart="25239.00" departSpeed="max" from="-186623965#18" id="126900_407_0" speedFactor="0.8558108762327296" to="42925825#0" type="pkw" />
	<trip depart="25240.00" departSpeed="max" from="-28675510#11" id="164302_422_0" speedFactor="0.9773627071184389" to="-186623965#14" type="pkw" />
	<trip depart="25240.00" departSpeed="max" from="28675510#1" id="158136_421_0" speedFactor="0.910738379534859" to="323416262" type="pkw" />
	<trip depart="25241.00" departSpeed="max" from="-186623965#18" id="126698_407_0" speedFactor="0.8185034757076266" to="42925825#0" type="pkw" />
	<trip depart="25244.00" departSpeed="max" from="22917421#3" id="122140_406_0" speedFactor="0.9969093612241008" to="23648008#2" type="pkw" />
	<trip depart="25246.00" departSpeed="max" from="-28675510#11" id="163025_422_0" speedFactor="0.8529979331686284" to="8716807#1" type="pkw" />
	<trip depart="25247.00" departSpeed="max" from="22917421#3" id="118788_405_0" speedFactor="0.9358195124356841" to="186623965#17" type="pkw" />
	<trip depart="25248.00" departSpeed="max" from="-186623965#18" id="131243_409_0" speedFactor="0.8188856693482254" to="-186623965#14" type="pkw" />
	<trip depart="25248.00" departSpeed="max" from="-186623965#18" id="161216_421_0" speedFactor="0.9869978069382395" to="42925825#0" type="pkw" />
	<trip depart="25249.00" departSpeed="max" from="186623965#9" id="113370_402_0" speedFactor="0.868563776360184" to="42925825#0" type="pkw" />
	<trip depart="25251.00" departSpeed="max" from="-186623965#18" id="159622_421_0" speedFactor="0.8795648444196594" to="42925825#0" type="pkw" />
	<trip depart="25255.00" departSpeed="max" from="-186623965#18" id="163799_422_0" speedFactor="0.85573429903688" to="-22917421#4" type="pkw" />
	<trip depart="25255.00" departSpeed="max" from="-23283579#1" id="129175_408_0" speedFactor="0.9672089220095663" to="323450710#0" type="pkw" />
	<trip depart="25256.00" departSpeed="max" from="23283580#0" id="173747_427_0" speedFactor="0.807913255892983" to="28675510#7" type="pkw" />
	<trip depart="25256.00" departSpeed="max" from="22917421#3" id="144617_416_0" speedFactor="0.8771955476389388" to="186623965#17" type="pkw" />
	<trip depart="25257.00" departSpeed="max" from="-23283579#1" id="127809_407_0" speedFactor="0.9607050911974018" to="23285888#0" type="pkw" />
	<trip depart="25259.00" departSpeed="max" from="186623965#9" id="145282_416_0" speedFactor="0.9677349732996144" to="42925825#0" type="pkw" />
	<trip depart="25261.00" departSpeed="max" from="-23283579#1" id="84611_390_0" speedFactor="0.8311087040597971" to="-23648008#0" type="pkw" />
	<trip depart="25264.00" departSpeed="max" from="-297047309#0" id="138793_413_0" speedFactor="0.9117166787131684" to="28675510#7" type="pkw" />
	<trip depart="25264.00" departSpeed="max" from="8716807#1" id="162890_422_0" speedFactor="0.9816841564412232" to="28675510#7" type="pkw" />
	<trip depart="25267.00" departSpeed="max" from="-353069169#0" id="111571_401_0" speedFactor="0.9669732462814002" to="24487264" type="pkw" />
	<trip depart="25268.00" departSpeed="max" from="-23283579#1" id="121484_406_0" speedFactor="0.8780653335743582" to="133081987#3" type="pkw" />
	<trip depart="25270.00" departSpeed="max" from="-23283579#1" id="91556_392_0" speedFactor="0.9663735812297347" to="23840972" type="pkw" />
	<trip depart="25272.00" departSpeed="max" from="-186623965#18" id="147744_416_0" speedFactor="0.9219242889781545" to="42925825#0" type="pkw" />
	<trip depart="25273.00" departSpeed="max" from="-23283579#1" id="105090_398_0" speedFactor="0.9318405552415951" to="-186623965#14" type="pkw" />
	<trip depart="25273.00" departSpeed="max" from="22917421#3" id="162497_421_0" speedFactor="0.9338677316412545" to="186623965#17" type="pkw" />
	<trip depart="25274.00" departSpeed="max" from="-28675510#11" id="142950_415_0" speedFactor="0.920530574571326" to="155723703#0" type="pkw" />
	<trip depart="25283.00" departSpeed="max" from="-28675510#11" id="107217_400_0" speedFactor="0.9150419224662855" to="-186623965#14" type="pkw" />
	<trip depart="25287.00" departSpeed="max" from="22959550#3" id="174787_427_0" speedFactor="0.8711465655713628" to="28675510#7" type="pkw" />
	<trip depart="25297.00" departSpeed="max" from="22959552#0" id="150593_418_0" speedFactor="0.800001670404777" to="22959552#0" type="pkw" />
	<trip depart="25299.00" departSpeed="max" from="-297047307" id="152801_419_0" speedFactor="0.8922802511556132" to="297047309#0" type="pkw" />
	<trip depart="25303.00" departSpeed="max" from="23283470#0" id="157572_421_0" speedFactor="0.9595934614776147" to="323416262" type="pkw" />
	<trip depart="25307.00" departSpeed="max" from="-23283579#1" id="139269_413_0" speedFactor="0.8238742720382167" to="-297047308" type="pkw" />
	<trip depart="25308.00" departSpeed="max" from="22917421#3" id="145512_416_0" speedFactor="0.8764552535623289" to="186623965#17" type="pkw" />
	<trip depart="25310.00" departSpeed="max" from="22917421#3" id="149422_417_0" speedFactor="0.8966595139814154" to="-23840935" type="pkw" />
	<trip depart="25313.00" departSpeed="max" from="22917421#3" id="140363_414_0" speedFactor="0.8180054890479087" to="-186623965#14" type="pkw" />
	<trip depart="25313.00" departSpeed="max" from="-28675510#0" id="146391_416_0" speedFactor="0.9008132351820461" to="28675510#7" type="pkw" />
	<trip depart="25314.00" departSpeed="max" from="-23283579#1" id="171749_426_0" speedFactor="0.9912065472580047" to="-297047309#0" type="pkw" />
	<trip depart="25314.00" departSpeed="max" from="186623965#9" id="138639_413_0" speedFactor="0.8418507171794202" to="186623965#17" type="pkw" />
	<trip depart="25320.00" departSpeed="max" from="-186623965#18" id="148207_417_0" speedFactor="0.9472988873296373" to="42925825#0" type="pkw" />
	<trip depart="25321.00" departSpeed="max" from="-28675510#11" id="146387_416_0" speedFactor="0.9239609199166224" to="-186623965#14" type="pkw" />
	<trip depart="25324.00" departSpeed="max" from="-186623965#18" id="175709_428_0" speedFactor="0.83025394113674" to="-186623965#14" type="pkw" />
	<trip depart="25326.00" departSpeed="max" from="133081987#0" id="171184_426_0" speedFactor="0.980884122976336" to="23283436" type="pkw" />
	<trip depart="25328.00" departSpeed="max" from="23840713#2" id="175131_428_0" speedFactor="0.805192694059138" to="42925825#0" type="pkw" />
	<trip depart="25329.00" departSpeed="max" from="22917421#3" id="150411_418_0" speedFactor="0.8318850188566648" to="23840972" type="pkw" />
	<trip depart="25330.00" departSpeed="max" from="-186623965#18" id="137686_412_0" speedFactor="0.984403001507997" to="42925825#0" type="pkw" />
	<trip depart="25331.00" departSpeed="max" from="-186623965#16" id="148039_417_0" speedFactor="0.9948838229967715" to="186623965#17" type="pkw" />
	<trip depart="25338.00" departSpeed="max" from="8716807#1" id="149205_417_0" speedFactor="0.9626480132274563" to="323416262" type="pkw" />
	<trip depart="25339.00" departSpeed="max" from="-23283579#1" id="109527_401_0" speedFactor="0.9885444183774191" to="297047309#0" type="pkw" />
	<trip depart="25343.00" departSpeed="max" from="-23283579#1" id="120970_405_0" speedFactor="0.8993841482215386" to="23283470#5" type="pkw" />
	<trip depart="25343.00" departSpeed="max" from="23285888#0" id="164277_422_0" speedFactor="0.8066928884647135" to="297047309#0" type="pkw" />
	<trip depart="25348.00" departSpeed="max" from="-353069169#0" id="144017_416_0" speedFactor="0.886114530515213" to="323416262" type="pkw" />
	<trip depart="25349.00" departSpeed="max" from="22917421#3" id="166783_424_0" speedFactor="0.9143779306210642" to="186623965#17" type="pkw" />
	<trip depart="25356.00" departSpeed="max" from="-186623965#18" id="108769_400_0" speedFactor="0.8813473814868835" to="-22917421#4" type="pkw" />
	<trip depart="25363.00" departSpeed="max" from="133081987#3" id="148419_417_0" speedFactor="0.9507170441160995" to="297047309#0" type="pkw" />
	<trip depart="25369.00" departSpeed="max" from="23840712#0" id="146495_416_0" speedFactor="0.9007649591050771" to="-186623965#14" type="pkw" />
	<trip depart="25369.00" departSpeed="max" from="-186623965#18" id="96268_394_0" speedFactor="0.8360112170676746" to="-22917421#4" type="pkw" />
	<trip depart="25371.00" departSpeed="max" from="-23283579#1" id="138031_412_0" speedFactor="0.9509126516612044" to="-23840935" type="pkw" />
	<trip depart="25373.00" departSpeed="max" from="22917421#3" id="174717_427_0" speedFactor="0.8198930368928237" to="186623965#17" type="pkw" />
	<trip depart="25375.00" departSpeed="max" from="-23283579#1" id="158300_421_0" speedFactor="0.8694093603584149" to="-23648008#0" type="pkw" />
	<trip depart="25375.00" departSpeed="max" from="22917421#3" id="142307_415_0" speedFactor="0.8863148785835602" to="186623965#17" type="pkw" />
	<trip depart="25382.00" departSpeed="max" from="-25166682#0" id="167565_425_0" speedFactor="0.8112419615633113" to="23283579#1" type="pkw" />
	<trip depart="25383.00" departSpeed="max" from="186623965#9" id="139530_413_0" speedFactor="0.983282906961309" to="42925825#0" type="pkw" />
	<trip depart="25383.00" departSpeed="max" from="23283470#0" id="179907_430_0" speedFactor="0.9955968348037573" to="23283579#1" type="pkw" />
	<trip depart="25385.00" departSpeed="max" from="-297047309#0" id="149274_417_0" speedFactor="0.8679076444114742" to="-23840888#0" type="pkw" />
	<trip depart="25386.00" departSpeed="max" from="186623965#9" id="109384_401_0" speedFactor="0.8430165405371056" to="323450710#0" type="pkw" />
	<trip depart="25387.00" departSpeed="max" from="-297047309#0" id="139438_413_0" speedFactor="0.994964474915065" to="28675510#7" type="pkw" />
	<trip depart="25388.00" departSpeed="max" from="22917421#3" id="157954_421_0" speedFactor="0.8017905723936829" to="186623965#17" type="pkw" />
	<trip depart="25389.00" departSpeed="max" from="-28675510#11" id="139869_414_0" speedFactor="0.9858496958245088" to="186623965#17" type="pkw" />
	<trip depart="25403.00" departSpeed="max" from="-23283579#1" id="153335_420_0" speedFactor="0.8800576194753686" to="297047309#0" type="pkw" />
	<trip depart="25405.00" departSpeed="max" from="-186623965#18" id="164388_422_0" speedFactor="0.815598170888517" to="-22917421#4" type="pkw" />
	<trip depart="25405.00" departSpeed="max" from="290365598#0" id="169793_426_0" speedFactor="0.9188169008734796" to="-186623965#14" type="pkw" />
	<trip depart="25405.00" departSpeed="max" from="-28675510#0" id="145712_416_0" speedFactor="0.8117055409960588" to="28675510#7" type="pkw" />
	<trip depart="25406.00" departSpeed="max" from="-23283579#1" id="146699_416_0" speedFactor="0.8685340987032933" to="297047309#0" type="pkw" />
	<trip depart="25408.00" departSpeed="max" from="-4936412" id="83049_390_0" speedFactor="0.9068805004965494" to="8716827#0" type="pkw" />
	<trip depart="25411.00" departSpeed="max" from="22917421#3" id="154420_420_0" speedFactor="0.9323680464354851" to="186623965#17" type="pkw" />
	<trip depart="25412.00" departSpeed="max" from="-4936412" id="67978_381_0" speedFactor="0.980098838458691" to="8716827#0" type="pkw" />
	<trip depart="25414.00" departSpeed="max" from="-186623965#18" id="177639_429_0" speedFactor="0.845990910889261" to="23283473" type="pkw" />
	<trip depart="25414.00" departSpeed="max" from="-23840712#0" id="149528_417_0" speedFactor="0.9049676126588192" to="28675510#7" type="pkw" />
	<trip depart="25415.00" departSpeed="max" from="-186623965#18" id="118988_405_0" speedFactor="0.9458740423888252" to="-22917421#4" type="pkw" />
	<trip depart="25415.00" departSpeed="max" from="23283470#0" id="171631_426_0" speedFactor="0.9190160960387487" to="23283579#1" type="pkw" />
	<trip depart="25419.00" departSpeed="max" from="-23840712#0" id="161682_421_0" speedFactor="0.81797804468358" to="28675510#7" type="pkw" />
	<trip depart="25419.00" departSpeed="max" from="25166682#0" id="154646_420_0" speedFactor="0.851767070828127" to="323450710#0" type="pkw" />
	<trip depart="25422.00" departSpeed="max" from="-28675493" id="168963_425_0" speedFactor="0.9711178645163367" to="23283579#1" type="pkw" />
	<trip depart="25427.00" departSpeed="max" from="-186623965#18" id="165190_423_0" speedFactor="0.867879326548932" to="-23840935" type="pkw" />
	<trip depart="25441.00" departSpeed="max" from="-4936412" id="122677_406_0" speedFactor="0.9585851346506156" to="8716827#0" type="pkw" />
	<trip depart="25444.00" departSpeed="max" from="22917421#3" id="150535_418_0" speedFactor="0.8840305297069645" to="186623965#17" type="pkw" />
	<trip depart="25449.00" departSpeed="max" from="42925825#0" id="166238_424_0" speedFactor="0.8334573078610307" to="42925825#0" type="pkw" />
	<trip depart="25456.00" departSpeed="max" from="23647126" id="171497_426_0" speedFactor="0.9927852425894319" to="23283579#1" type="pkw" />
	<trip depart="25456.00" departSpeed="max" from="-4936412" id="139487_413_0" speedFactor="0.8807082491301681" to="8716827#0" type="pkw" />
	<trip depart="25457.00" departSpeed="max" from="186623965#9" id="148577_417_0" speedFactor="0.8398395825831846" to="42925825#0" type="pkw" />
	<trip depart="25458.00" departSpeed="max" from="-186623965#18" id="118123_405_0" speedFactor="0.9823957244054974" to="-23840935" type="pkw" />
	<trip depart="25459.00" departSpeed="max" from="-297047309#0" id="131441_410_0" speedFactor="0.8619765053937354" to="23283579#1" type="pkw" />
	<trip depart="25464.00" departSpeed="max" from="22917421#3" id="151819_419_0" speedFactor="0.9297231053394774" to="186623965#17" type="pkw" />
	<trip depart="25466.00" departSpeed="max" from="-186623965#18" id="137017_412_0" speedFactor="0.8710124486311108" to="-22917421#4" type="pkw" />
	<trip depart="25466.00" departSpeed="max" from="22959550#3" id="154649_420_0" speedFactor="0.8428987713264987" to="42925825#0" type="pkw" />
	<trip depart="25467.00" departSpeed="max" from="-297047309#0" id="166158_424_0" speedFactor="0.8749458804884397" to="23283579#1" type="pkw" />
	<trip depart="25467.00" departSpeed="max" from="-186623965#18" id="131919_410_0" speedFactor="0.9131614346011048" to="297047309#0" type="pkw" />
	<trip depart="25468.00" departSpeed="max" from="186623965#9" id="105921_399_0" speedFactor="0.8001036773496368" to="42925825#0" type="pkw" />
	<trip depart="25471.00" departSpeed="max" from="186623965#9" id="110653_401_0" speedFactor="0.9903476177432383" to="42925825#0" type="pkw" />
	<trip depart="25472.00" departSpeed="max" from="297047308" id="156503_420_0" speedFactor="0.8608850438545188" to="297047309#0" type="pkw" />
	<trip depart="25475.00" departSpeed="max" from="-4936412" id="136088_411_0" speedFactor="0.9889814348846533" to="8716827#0" type="pkw" />
	<trip depart="25477.00" departSpeed="max" from="22917421#3" id="173519_427_0" speedFactor="0.938223938966764" to="186623965#17" type="pkw" />
	<trip depart="25479.00" departSpeed="max" from="23283579#1" id="148727_417_0" speedFactor="0.9632096983966743" to="23283579#1" type="pkw" />
	<trip depart="25481.00" departSpeed="max" from="186623965#9" id="143994_416_0" speedFactor="0.8745181987422499" to="42925825#0" type="pkw" />
	<trip depart="25484.00" departSpeed="max" from="-23283579#1" id="161175_421_0" speedFactor="0.9718800272060245" to="-186623965#14" type="pkw" />
	<trip depart="25488.00" departSpeed="max" from="-4936412" id="115107_403_0" speedFactor="0.9062541739437175" to="8716827#0" type="pkw" />
	<trip depart="25490.00" departSpeed="max" from="-4936412" id="110175_401_0" speedFactor="0.9243733782306305" to="155723703#0" type="pkw" />
	<trip depart="25496.00" departSpeed="max" from="-4936412" id="82749_390_0" speedFactor="0.8475613691539272" to="155723703#0" type="pkw" />
	<trip depart="25497.00" departSpeed="max" from="23647118" id="177623_429_0" speedFactor="0.918776462786107" to="297047309#0" type="pkw" />
	<trip depart="25498.00" departSpeed="max" from="-186623965#18" id="119370_405_0" speedFactor="0.9003858819970318" to="-28675493" type="pkw" />
	<trip depart="25500.00" departSpeed="max" from="-4936412" id="104777_398_0" speedFactor="0.9536826091191558" to="8716827#0" type="pkw" />
	<trip depart="25501.00" departSpeed="max" from="28675510#1" id="162709_422_0" speedFactor="0.9557061550028828" to="42925825#0" type="pkw" />
	<trip depart="25504.00" departSpeed="max" from="186623965#9" id="157758_421_0" speedFactor="0.9763991925455182" to="42925825#0" type="pkw" />
	<trip depart="25514.00" departSpeed="max" from="-42925825#2" id="173176_427_0" speedFactor="0.8770223562296333" to="60909001" type="pkw" />
	<trip depart="25516.00" departSpeed="max" from="23840713#2" id="183261_431_0" speedFactor="0.8763159884649969" to="42925825#0" type="pkw" />
	<trip depart="25517.00" departSpeed="max" from="-186623965#18" id="148572_417_0" speedFactor="0.9640671963285067" to="323450710#0" type="pkw" />
	<trip depart="25518.00" departSpeed="max" from="-42925825#2" id="175527_428_0" speedFactor="0.8308266062629663" to="-297047310#2" type="pkw" />
	<trip depart="25521.00" departSpeed="max" from="-23283472#2" id="155960_420_0" speedFactor="0.8403235934360462" to="23283436" type="pkw" />
	<trip depart="25523.00" departSpeed="max" from="-23283579#1" id="133805_411_0" speedFactor="0.9261295743282627" to="23840972" type="pkw" />
	<trip depart="25525.00" departSpeed="max" from="-23283579#1" id="148797_417_0" speedFactor="0.8642864616952872" to="42925825#0" type="pkw" />
	<trip depart="25527.00" departSpeed="max" from="-23283579#1" id="176921_429_0" speedFactor="0.9789536280649667" to="28675510#7" type="pkw" />
	<trip depart="25527.00" departSpeed="max" from="-25166682#0" id="150719_418_0" speedFactor="0.9809203718531521" to="28675510#7" type="pkw" />
	<trip depart="25529.00" departSpeed="max" from="-23283579#1" id="163211_422_0" speedFactor="0.930878644773142" to="-186623965#14" type="pkw" />
	<trip depart="25533.00" departSpeed="max" from="22917421#3" id="172172_426_0" speedFactor="0.8182528909825536" to="42925825#0" type="pkw" />
	<trip depart="25540.00" departSpeed="max" from="-23283579#1" id="163292_422_0" speedFactor="0.9575450685429366" to="42925825#0" type="pkw" />
	<trip depart="25540.00" departSpeed="max" from="23283580#0" id="160003_421_0" speedFactor="0.9582211596972898" to="23286179#2" type="pkw" />
	<trip depart="25543.00" departSpeed="max" from="-23283579#1" id="164927_423_0" speedFactor="0.9464222405561121" to="297047309#0" type="pkw" />
	<trip depart="25543.00" departSpeed="max" from="-23840712#0" id="164812_422_0" speedFactor="0.915629744941952" to="297047309#0" type="pkw" />
	<trip depart="25544.00" departSpeed="max" from="23840712#1" id="161177_421_0" speedFactor="0.8367761860882651" to="297047309#0" type="pkw" />
	<trip depart="25546.00" departSpeed="max" from="-186623965#18" id="150368_418_0" speedFactor="0.9881133875462397" to="-290365598#1" type="pkw" />
	<trip depart="25547.00" departSpeed="max" from="186623965#9" id="165987_424_0" speedFactor="0.8168833586392273" to="42925825#0" type="pkw" />
	<trip depart="25548.00" departSpeed="max" from="-23283579#1" id="142315_415_0" speedFactor="0.8391317537237268" to="297047309#0" type="pkw" />
	<trip depart="25550.00" departSpeed="max" from="-23283579#1" id="121828_406_0" speedFactor="0.9284926199408037" to="23648008#2" type="pkw" />
	<trip depart="25552.00" departSpeed="max" from="22959550#3" id="154381_420_0" speedFactor="0.8909956754836579" to="28675510#7" type="pkw" />
	<trip depart="25552.00" departSpeed="max" from="-23283579#1" id="81429_389_0" speedFactor="0.8827658787177141" to="23647126" type="pkw" />
	<trip depart="25554.00" departSpeed="max" from="-23283579#1" id="161283_421_0" speedFactor="0.9374251564456122" to="-186623965#14" type="pkw" />
	<trip depart="25554.00" departSpeed="max" from="28675510#1" id="188348_433_0" speedFactor="0.9556426053606044" to="42925825#0" type="pkw" />
	<trip depart="25555.00" departSpeed="max" from="23283580#0" id="179877_430_0" speedFactor="0.9082736947575331" to="23286179#2" type="pkw" />
	<trip depart="25556.00" departSpeed="max" from="22917421#3" id="173080_427_0" speedFactor="0.8884612429304066" to="186623965#17" type="pkw" />
	<trip depart="25558.00" departSpeed="max" from="-23283579#1" id="140513_414_0" speedFactor="0.8764049617788546" to="297047309#0" type="pkw" />
	<trip depart="25558.00" departSpeed="max" from="23283580#0" id="154500_420_0" speedFactor="0.9928014988211593" to="23286179#2" type="pkw" />
	<trip depart="25558.00" departSpeed="max" from="23286179#2" id="161086_421_0" speedFactor="0.9699727530976957" to="42925825#0" type="pkw" />
	<trip depart="25559.00" departSpeed="max" from="-42925825#2" id="126208_407_0" speedFactor="0.8086173996017171" to="297047309#0" type="pkw" />
	<trip depart="25559.00" departSpeed="max" from="186623965#9" id="147697_416_0" speedFactor="0.8367115653708158" to="42925825#0" type="pkw" />
	<trip depart="25563.00" departSpeed="max" from="-23283579#1" id="126688_407_0" speedFactor="0.9361438295600406" to="-23840972" type="pkw" />
	<trip depart="25563.00" departSpeed="max" from="-28675510#11" id="113945_402_0" speedFactor="0.9815041096291951" to="297047310#4" type="pkw" />
	<trip depart="25566.00" departSpeed="max" from="-186623965#18" id="116644_404_0" speedFactor="0.9464396673010542" to="297047309#0" type="pkw" />
	<trip depart="25567.00" departSpeed="max" from="28675510#1" id="186152_432_0" speedFactor="0.84931188296812" to="28675510#7" type="pkw" />
	<trip depart="25568.00" departSpeed="max" from="22959550#0" id="168666_425_0" speedFactor="0.973452015895025" to="28675510#7" type="pkw" />
	<trip depart="25571.00" departSpeed="max" from="23283580#0" id="171283_426_0" speedFactor="0.9943877575417673" to="28675510#7" type="pkw" />
	<trip depart="25573.00" departSpeed="max" from="186623965#17" id="176781_429_0" speedFactor="0.838240507391844" to="42925825#0" type="pkw" />
	<trip depart="25573.00" departSpeed="max" from="23840713#2" id="186808_432_0" speedFactor="0.8757888390347366" to="28675510#7" type="pkw" />
	<trip depart="25574.00" departSpeed="max" from="-28675510#11" id="148143_417_0" speedFactor="0.8604431799136575" to="8716827#0" type="pkw" />
	<trip depart="25575.00" departSpeed="max" from="23283474" id="183189_431_0" speedFactor="0.9132404582079612" to="22959552#0" type="pkw" />
	<trip depart="25575.00" departSpeed="max" from="-4936412" id="160078_421_0" speedFactor="0.9275823879869978" to="8716827#0" type="pkw" />
	<trip depart="25576.00" departSpeed="max" from="-28675510#11" id="129126_408_0" speedFactor="0.9261462425371196" to="-186623965#14" type="pkw" />
	<trip depart="25577.00" departSpeed="max" from="-186623965#18" id="127322_407_0" speedFactor="0.9566412958488619" to="-28675510#5" type="pkw" />
	<trip depart="25580.00" departSpeed="max" from="132042183" id="119014_405_0" speedFactor="0.8596473230502446" to="-23283472#2" type="pkw" />
	<trip depart="25581.00" departSpeed="max" from="-4936412" id="163913_422_0" speedFactor="0.9108490063602599" to="8716827#0" type="pkw" />
	<trip depart="25584.00" departSpeed="max" from="23283579#1" id="156093_420_0" speedFactor="0.846079271348691" to="23283579#1" type="pkw" />
	<trip depart="25585.00" departSpeed="max" from="-186623965#18" id="98770_395_0" speedFactor="0.9074454467854763" to="23840935" type="pkw" />
	<trip depart="25589.00" departSpeed="max" from="186623965#9" id="161788_421_0" speedFactor="0.8829833826164387" to="-186623965#14" type="pkw" />
	<trip depart="25592.00" departSpeed="max" from="160807420" id="133534_410_0" speedFactor="0.9990750910147904" to="8716827#0" type="pkw" />
	<trip depart="25592.00" departSpeed="max" from="-4936412" id="102131_396_0" speedFactor="0.812130992039299" to="8716827#0" type="pkw" />
	<trip depart="25593.00" departSpeed="max" from="-297047309#0" id="145098_416_0" speedFactor="0.8085025166605142" to="28675510#7" type="pkw" />
	<trip depart="25594.00" departSpeed="max" from="186623965#9" id="151627_419_0" speedFactor="0.8553853371561609" to="186623965#17" type="pkw" />
	<trip depart="25595.00" departSpeed="max" from="-186623965#18" id="143015_415_0" speedFactor="0.8879821227393228" to="323450710#0" type="pkw" />
	<trip depart="25596.00" departSpeed="max" from="186623965#9" id="147083_416_0" speedFactor="0.8010636929710343" to="-22917421#4" type="pkw" />
	<trip depart="25597.00" departSpeed="max" from="-186623965#18" id="117318_404_0" speedFactor="0.8321848635388512" to="323450710#0" type="pkw" />
	<trip depart="25600.00" departSpeed="max" from="-23283579#1" id="151894_419_0" speedFactor="0.8934288560110355" to="25166682#0" type="pkw" />
	<trip depart="25603.00" departSpeed="max" from="-23283579#1" id="107138_400_0" speedFactor="0.8835179053701062" to="297047309#0" type="pkw" />
	<trip depart="25605.00" departSpeed="max" from="290365598#0" id="173908_427_0" speedFactor="0.9404117836293701" to="28675510#7" type="pkw" />