<routes xmlns:xsi="http://www.w3.org/2001/XMLSchema-instance" xsi:noNamespaceSchemaLocation="http://sumo.dlr.de/xsd/routes_file.xsd">
	<vType id="pkw" length="4.3" minGap="1.5" speedDev="0.1" vClass="passenger" />
	<trip depart="25200.00" departSpeed="max" from="-23283579#1" id="137312_412_0" speedFactor="1.1623101788535544" to="23283436" type="pkw" />
	<trip depart="25200.00" departSpeed="max" from="-28675510#11" id="155570_420_0" speedFactor="1.1090743267085679" to="28675510#7" type="pkw" />
	<trip depart="25201.00" departSpeed="max" from="22917421#3" id="114597_403_0" speedFactor="1.0151554787646477" to="-186623965#14" type="pkw" />
	<trip depart="25204.00" departSpeed="max" from="-23283579#1" id="76230_386_0" speedFactor="1.1744363997161271" to="297047309#0" type="pkw" />
	<trip depart="25205.00" departSpeed="max" from="22959552#0" id="156485_420_0" speedFactor="1.0205227032339772" to="28675510#7" type="pkw" />
	<trip depart="25206.00" departSpeed="max" from="-23283579#1" id="110248_401_0" speedFactor="1.1297042350243942" to="297047309#0" type="pkw" />
	<trip depart="25206.00" departSpeed="max" from="-28675510#11" id="134603_411_0" speedFactor="1.1797383829851793" to="28675510#7" type="pkw" />
	<trip depart="25208.00" departSpeed="max" from="-28675510#11" id="166776_424_0" speedFactor="1.1526484979936167" to="-186623965#14" type="pkw" />
	<trip depart="25209.00" departSpeed="max" from="-186623965#18" id="137959_412_0" speedFactor="1.131155795907933" to="-22917421#4" type="pkw" />
	<trip depart="25210.00" departSpeed="max" from="25166682#0" id="146152_416_0" speedFactor="1.113672419508477" to="28675510#7" type="pkw" />
	<trip depart="25210.00" departSpeed="max" from="-28675510#11" id="140143_414_0" speedFactor="1.0514918789772714" to="28675510#7" type="pkw" />
	<trip depart="25211.00" departSpeed="max" from="-23283579#1" id="134167_411_0" speedFactor="1.1088733019474983" to="-186623965#14" type="pkw" />
	<trip depart="25212.00" departSpeed="max" from="-28675510#11" id="163043_422_0" speedFactor="1.0560163406338405" to="8716827#0" type="pkw" />
	<trip depart="25213.00" departSpeed="max" from="-23283579#1" id="160358_421_0" speedFactor="1.1228560788344557" to="-186623965#14" type="pkw" />
	<trip depart="25214.00" departSpeed="max" from="-28675510#11" id="135663_411_0" speedFactor="1.1844043124301455" to="28675510#7" type="pkw" />
	<trip depart="25217.00" departSpeed="max" from="-28675510#11" id="149045_417_0" speedFactor="1.1746812866635516" to="28675510#7" type="pkw" />
	<trip depart="25218.00" departSpeed="max" from="-23283579#1" id="142890_415_0" speedFactor="1.0266632106249614" to="23283579#1" type="pkw" />
	<trip depart="25220.00" departSpeed="max" from="22917421#3" id="158885_421_0" speedFactor="1.0829167041249192" to="28675510#7" type="pkw" />
	<trip depart="25221.00" departSpeed="max" from="-28675510#11" id="146111_416_0" speedFactor="1.0451607987987328" to="-186623965#14" type="pkw" />
	<trip depart="25221.00" departSpeed="max" from="186623965#9" id="140525_414_0" speedFactor="1.0268326094049498" to="186623965#17" type="pkw" />
	<trip depart="25224.00" departSpeed="max" from="-28675510#11" id="117517_404_0" speedFactor="1.1928029567079175" to="-186623965#14" type="pkw" />
	<trip depart="25226.00" departSpeed="max" from="186623965#9" id="119181_405_0" speedFactor="1.0363709639137426" to="42925825#0" type="pkw" />
	<trip depart="25228.00" departSpeed="max" from="186623965#9" id="133416_410_0" speedFactor="1.1641321535312716" to="42925825#0" type="pkw" />
	<trip depart="25228.00" departSpeed="max" from="-186623965#18" id="131237_409_0" speedFactor="1.1950857285448822" to="297047309#0" type="pkw" />
	<trip depart="25229.00" departSpeed="max" from="22917421#3" id="138070_412_0" speedFactor="1.0853614821648954" to="186623965#17" type="pkw" />
	<trip depart="25229.00" departSpeed="max" from="-28675510#11" id="152887_419_0" speedFactor="1.0910967908459446" to="8716827#0" type="pkw" />
	<trip depart="25232.00" departSpeed="max" from="-186623965#18" id="141355_415_0" speedFactor="1.1821984863690334" to="42925825#0" type="pkw" />
	<trip depart="25232.00" departSpeed="max" from="22917421#3" id="153496_420_0" speedFactor="1.1271086438957503" to="186623965#17" type="pkw" />
	<trip depart="25232.00" departSpeed="max" from="-28675510#11" id="154212_420_0" speedFactor="1.1682769321250588" to="-186623965#14" type="pkw" />
	<trip depart="25233.00" departSpeed="max" from="-42925825#2" id="161942_421_0" speedFactor="1.1175339654455108" to="42925825#0" type="pkw" />
	<trip depart="25233.00" departSpeed="max" from="22959550#0" id="166162_424_0" speedFactor="1.121389823731113" to="28675510#7" type="pkw" />
	<trip depart="25234.00" departSpeed="max" from="22917421#3" id="155353_420_0" speedFactor="1.1576834270821115" to="186623965#17" type="pkw" />
	<trip depart="25236.00" departSpeed="max" from="22917421#3" id="124742_406_0" speedFactor="1.0993618294028746" to="28675493" type="pkw" />
	<trip depart="25236.00" departSpeed="max" from="-186623965#18" id="131071_409_0" speedFactor="1.0589968257194045" to="42925825#0" type="pkw" />
	<trip depart="25237.00" departSpeed="max" from="-28675510#11" id="134428_411_0" speedFactor="1.1202609881916696" to="28675510#7" type="pkw" />
	<trip depart="25239.00" departSpeed="max" from="-186623965#18" id="126900_407_0" speedFactor="1.1662101820870978" to="42925825#0" type="pkw" />
	<trip depart="25240.00" departSpeed="max" from="-28675510#11" id="164302_422_0" speedFactor="1.0473338022954466" to="-186623965#14" type="pkw" />
	<trip depart="25240.00" departSpeed="max" from="28675510#1" id="158136_421_0" speedFactor="1.074359276047414" to="323416262" type="pkw" />
	<trip depart="25241.00" departSpeed="max" from="-186623965#18" id="126698_407_0" speedFactor="1.1782193935287528" to="42925825#0" type="pkw" />
	<trip depart="25244.00" departSpeed="max" from="22917421#3" id="122140_406_0" speedFactor="1.1842841850560886" to="23648008#2" type="pkw" />
	<trip depart="25246.00" departSpeed="max" from="-28675510#11" id="163025_422_0" speedFactor="1.0026997779328413" to="8716807#1" type="pkw" />
	<trip depart="25247.00" departSpeed="max" from="22917421#3" id="118788_405_0" speedFactor="1.0852973877009786" to="186623965#17" type="pkw" />
	<trip depart="25248.00" departSpeed="max" from="-186623965#18" id="131243_409_0" speedFactor="1.0963791342003966" to="-186623965#14" type="pkw" />
	<trip depart="25248.00" departSpeed="max" from="-186623965#18" id="161216_421_0" speedFactor="1.0789470517412356" to="42925825#0" type="pkw" />
	<trip depart="25249.00" departSpeed="max" from="186623965#9" id="113370_402_0" speedFactor="1.177018221105422" to="42925825#0" type="pkw" />
	<trip depart="25251.00" departSpeed="max" from="-186623965#18" id="159622_421_0" speedFactor="1.0045657349246127" to="42925825#0" type="pkw" />
	<trip depart="25255.00" departSpeed="max" from="-186623965#18" id="163799_422_0" speedFactor="1.08836818467833" to="-22917421#4" type="pkw" />
	<trip depart="25255.00" departSpeed="max" from="-23283579#1" id="129175_408_0" speedFactor="1.1350108929961522" to="323450710#0" type="pkw" />
	<trip depart="25256.00" departSpeed="max" from="23283580#0" id="173747_427_0" speedFactor="1.100331023574581" to="28675510#7" type="pkw" />
	<trip depart="25256.00" departSpeed="max" from="22917421#3" id="144617_416_0" speedFactor="1.1335720570568584" to="186623965#17" type="pkw" />
	<trip depart="25257.00" departSpeed="max" from="-23283579#1" id="127809_407_0" speedFactor="1.1666334055735246" to="23285888#0" type="pkw" />
	<trip depart="25259.00" departSpeed="max" from="186623965#9" id="145282_416_0" speedFactor="1.097068874793278" to="42925825#0" type="pkw" />
	<trip depart="25261.00" departSpeed="max" from="-23283579#1" id="84611_390_0" speedFactor="1.0894812962585112" to="-23648008#0" type="pkw" />
	<trip depart="25264.00" departSpeed="max" from="-297047309#0" id="138793_413_0" speedFactor="1.1251263464966508" to="28675510#7" type="pkw" />
	<trip depart="25264.00" departSpeed="max" from="8716807#1" id="162890_422_0" speedFactor="1.0596626412836323" to="28675510#7" type="pkw" />
	<trip depart="25267.00" departSpeed="max" from="-353069169#0" id="111571_401_0" speedFactor="1.0997056150093534" to="24487264" type="pkw" />
	<trip depart="25268.00" departSpeed="max" from="-23283579#1" id="121484_406_0" speedFactor="1.1165484307328457" to="133081987#3" type="pkw" />
	<trip depart="25270.00" departSpeed="max" from="-23283579#1" id="91556_392_0" speedFactor="1.0846601783991423" to="23840972" type="pkw" />
	<trip depart="25272.00" departSpeed="max" from="-186623965#18" id="147744_416_0" speedFactor="1.1538645723356304" to="42925825#0" type="pkw" />
	<trip depart="25273.00" departSpeed="max" from="-23283579#1" id="105090_398_0" speedFactor="1.110151306780226" to="-186623965#14" type="pkw" />
	<trip depart="25273.00" departSpeed="max" from="22917421#3" id="162497_421_0" speedFactor="1.0113557553346744" to="186623965#17" type="pkw" />
	<trip depart="25274.00" departSpeed="max" from="-28675510#11" id="142950_415_0" speedFactor="1.0007872937357853" to="155723703#0" type="pkw" />
	<trip depart="25283.00" departSpeed="max" from="-28675510#11" id="107217_400_0" speedFactor="1.0746879361307822" to="-186623965#14" type="pkw" />
	<trip depart="25287.00" departSpeed="max" from="22959550#3" id="174787_427_0" speedFactor="1.1541662403460666" to="28675510#7" type="pkw" />
	<trip depart="25297.00" departSpeed="max" from="22959552#0" id="150593_418_0" speedFactor="1.0979211202142627" to="22959552#0" type="pkw" />
	<trip depart="25299.00" departSpeed="max" from="-297047307" id="152801_419_0" speedFactor="1.0229243064796054" to="297047309#0" type="pkw" />
	<trip depart="25303.00" departSpeed="max" from="23283470#0" id="157572_421_0" speedFactor="1.158103046217621" to="323416262" type="pkw" />
	<trip depart="25307.00" departSpeed="max" from="-23283579#1" id="139269_413_0" speedFactor="1.0181237595994985" to="-297047308" type="pkw" />
	<trip depart="25308.00" departSpeed="max" from="22917421#3" id="145512_416_0" speedFactor="1.193336741481482" to="186623965#17" type="pkw" />
	<trip depart="25310.00" departSpeed="max" from="22917421#3" id="149422_417_0" speedFactor="1.1026457799312877" to="-23840935" type="pkw" />
	<trip depart="25313.00" departSpeed="max" from="22917421#3" id="140363_414_0" speedFactor="1.1363635464879327" to="-186623965#14" type="pkw" />
	<trip depart="25313.00" departSpeed="max" from="-28675510#0" id="146391_416_0" speedFactor="1.10221638259145" to="28675510#7" type="pkw" />
	<trip depart="25314.00" departSpeed="max" from="-23283579#1" id="171749_426_0" speedFactor="1.0080679337538871" to="-297047309#0" type="pkw" />
	<trip depart="25314.00" departSpeed="max" from="186623965#9" id="138639_413_0" speedFactor="1.135741897808535" to="186623965#17" type="pkw" />
	<trip depart="25320.00" departSpeed="max" from="-186623965#18" id="148207_417_0" speedFactor="1.0470958112053441" to="42925825#0" type="pkw" />
	<trip depart="25321.00" departSpeed="max" from="-28675510#11" id="146387_416_0" speedFactor="1.158764048283325" to="-186623965#14" type="pkw" />
	<trip depart="25324.00" departSpeed="max" from="-186623965#18" id="175709_428_0" speedFactor="1.085788917516475" to="-186623965#14" type="pkw" />
	<trip depart="25326.00" departSpeed="max" from="133081987#0" id="171184_426_0" speedFactor="1.087009424660272" to="23283436" type="pkw" />
	<trip depart="25328.00" departSpeed="max" from="23840713#2" id="175131_428_0" speedFactor="1.148956538003377" to="42925825#0" type="pkw" />
	<trip depart="25329.00" departSpeed="max" from="22917421#3" id="150411_418_0" speedFactor="1.1532233869843322" to="23840972" type="pkw" />
	<trip depart="25330.00" departSpeed="max" from="-186623965#18" id="137686_412_0" speedFactor="1.1809859657506672" to="42925825#0" type="pkw" />
	<trip depart="25331.00" departSpeed="max" from="-186623965#16" id="148039_417_0" speedFactor="1.000406969785372" to="186623965#17" type="pkw" />
	<trip depart="25338.00" departSpeed="max" from="8716807#1" id="149205_417_0" speedFactor="1.0088242521363895" to="323416262" type="pkw" />
	<trip depart="25339.00" departSpeed="max" from="-23283579#1" id="109527_401_0" speedFactor="1.1879052924741662" to="297047309#0" type="pkw" />
	<trip depart="25343.00" departSpeed="max" from="-23283579#1" id="120970_405_0" speedFactor="1.1300929980239618" to="23283470#5" type="pkw" />
	<trip depart="25343.00" departSpeed="max" from="23285888#0" id="164277_422_0" speedFactor="1.0489905180250905" to="297047309#0" type="pkw" />
	<trip depart="25348.00" departSpeed="max" from="-353069169#0" id="144017_416_0" speedFactor="1.183189303321099" to="323416262" type="pkw" />
	<trip depart="25349.00" departSpeed="max" from="22917421#3" id="166783_424_0" speedFactor="1.193085953676524" to="186623965#17" type="pkw" />
	<trip depart="25356.00" departSpeed="max" from="-186623965#18" id="108769_400_0" speedFactor="1.1154609726371212" to="-22917421#4" type="pkw" />
	<trip depart="25363.00" departSpeed="max" from="133081987#3" id="148419_417_0" speedFactor="1.0921363976422849" to="297047309#0" type="pkw" />
	<trip depart="25369.00" departSpeed="max" from="23840712#0" id="146495_416_0" speedFactor="1.0362627975738976" to="-186623965#14" type="pkw" />
	<trip depart="25369.00" departSpeed="max" from="-186623965#18" id="96268_394_0" speedFactor="1.0673426791856016" to="-22917421#4" type="pkw" />
	<trip depart="25371.00" departSpeed="max" from="-23283579#1" id="138031_412_0" speedFactor="1.0291846404880773" to="-23840935" type="pkw" />
	<trip depart="25373.00" departSpeed="max" from="22917421#3" id="174717_427_0" speedFactor="1.0584615974057696" to="186623965#17" type="pkw" />
	<trip depart="25375.00" departSpeed="max" from="-23283579#1" id="158300_421_0" speedFactor="1.037997263104336" to="-23648008#0" type="pkw" />
	<trip depart="25375.00" departSpeed="max" from="22917421#3" id="142307_415_0" speedFactor="1.0894669587774275" to="186623965#17" type="pkw" />
	<trip depart="25382.00" departSpeed="max" from="-25166682#0" id="167565_425_0" speedFactor="1.1432709082327341" to="23283579#1" type="pkw" />
	<trip depart="25383.00" departSpeed="max" from="186623965#9" id="139530_413_0" speedFactor="1.1904542600045185" to="42925825#0" type="pkw" />
	<trip depart="25383.00" departSpeed="max" from="23283470#0" id="179907_430_0" speedFactor="1.125714196222011" to="23283579#1" type="pkw" />
	<trip depart="25385.00" departSpeed="max" from="-297047309#0" id="149274_417_0" speedFactor="1.051807930680011" to="-23840888#0" type="pkw" />
	<trip depart="25386.00" departSpeed="max" from="186623965#9" id="109384_401_0" speedFactor="1.0465471394215635" to="323450710#0" type="pkw" />
	<trip depart="25387.00" departSpeed="max" from="-297047309#0" id="139438_413_0" speedFactor="1.158949572790647" to="28675510#7" type="pkw" />
	<trip depart="25388.00" departSpeed="max" from="22917421#3" id="157954_421_0" speedFactor="1.1287030383050605" to="186623965#17" type="pkw" />
	<trip depart="25389.00" departSpeed="max" from="-28675510#11" id="139869_414_0" speedFactor="1.0790361279082743" to="186623965#17" type="pkw" />
	<trip depart="25403.00" departSpeed="max" from="-23283579#1" id="153335_420_0" speedFactor="1.1495921161190077" to="297047309#0" type="pkw" />
	<trip depart="25405.00" departSpeed="max" from="-186623965#18" id="164388_422_0" speedFactor="1.1533606915838723" to="-22917421#4" type="pkw" />
	<trip depart="25405.00" departSpeed="max" from="290365598#0" id="169793_426_0" speedFactor="1.1126756077237578" to="-186623965#14" type="pkw" />
	<trip depart="25405.00" departSpeed="max" from="-28675510#0" id="145712_416_0" speedFactor="1.173171026923179" to="28675510#7" type="pkw" />
	<trip depart="25406.00" departSpeed="max" from="-23283579#1" id="146699_416_0" speedFactor="1.0883636733916053" to="297047309#0" type="pkw" />
	<trip depart="25408.00" departSpeed="max" from="-4936412" id="83049_390_0" speedFactor="1.0446010129065249" to="8716827#0" type="pkw" />
	<trip depart="25411.00" departSpeed="max" from="22917421#3" id="154420_420_0" speedFactor="1.0057283937178925" to="186623965#17" type="pkw" />
	<trip depart="25412.00" departSpeed="max" from="-4936412" id="67978_381_0" speedFactor="1.0394077341457433" to="8716827#0" type="pkw" />
	<trip depart="25414.00" departSpeed="max" from="-186623965#18" id="177639_429_0" speedFactor="1.0003826528853166" to="23283473" type="pkw" />
	<trip depart="25414.00" departSpeed="max" from="-23840712#0" id="149528_417_0" speedFactor="1.0775707098013034" to="28675510#7" type="pkw" />
	<trip depart="25415.00" departSpeed="max" from="-186623965#18" id="118988_405_0" speedFactor="1.018205077936009" to="-22917421#4" type="pkw" />
	<trip depart="25415.00" departSpeed="max" from="23283470#0" id="171631_426_0" speedFactor="1.1138814189193358" to="23283579#1" type="pkw" />
	<trip depart="25419.00" departSpeed="max" from="-23840712#0" id="161682_421_0" speedFactor="1.194734476441628" to="28675510#7" type="pkw" />
	<trip depart="25419.00" departSpeed="max" from="25166682#0" id="154646_420_0" speedFactor="1.1599426982939807" to="323450710#0" type="pkw" />
	<trip depart="25422.00" departSpeed="max" from="-28675493" id="168963_425_0" speedFactor="1.0749755318911922" to="23283579#1" type="pkw" />
	<trip depart="25427.00" departSpeed="max" from="-186623965#18" id="165190_423_0" speedFactor="1.0548861119934942" to="-23840935" type="pkw" />
	<trip depart="25441.00" departSpeed="max" from="-4936412" id="122677_406_0" speedFactor="1.0754260235052895" to="8716827#0" type="pkw" />
	<trip depart="25444.00" departSpeed="max" from="22917421#3" id="150535_418_0" speedFactor="1.0321377285010214" to="186623965#17" type="pkw" />
	<trip depart="25449.00" departSpeed="max" from="42925825#0" id="166238_424_0" speedFactor="1.0611518791410632" to="42925825#0" type="pkw" />
	<trip depart="25456.00" departSpeed="max" from="23647126" id="171497_426_0" speedFactor="1.1833368337715546" to="23283579#1" type="pkw" />
	<trip depart="25456.00" departSpeed="max" from="-4936412" id="139487_413_0" speedFactor="1.1870532062786654" to="8716827#0" type="pkw" />
	<trip depart="25457.00" departSpeed="max" from="186623965#9" id="148577_417_0" speedFactor="1.1650337110987048" to="42925825#0" type="pkw" />
	<trip depart="25458.00" departSpeed="max" from="-186623965#18" id="118123_405_0" speedFactor="1.121916996576316" to="-23840935" type="pkw" />
	<trip depart="25459.00" departSpeed="max" from="-297047309#0" id="131441_410_0" speedFactor="1.0170660904152273" to="23283579#1" type="pkw" />
	<trip depart="25464.00" departSpeed="max" from="22917421#3" id="151819_419_0" speedFactor="1.1906987285651236" to="186623965#17" type="pkw" />
	<trip depart="25466.00" departSpeed="max" from="-186623965#18" id="137017_412_0" speedFactor="1.0128939448261314" to="-22917421#4" type="pkw" />
	<trip depart="25466.00" departSpeed="max" from="22959550#3" id="154649_420_0" speedFactor="1.1948079869825288" to="42925825#0" type="pkw" />
	<trip depart="25467.00" departSpeed="max" from="-297047309#0" id="166158_424_0" speedFactor="1.0099746315580875" to="23283579#1" type="pkw" />
	<trip depart="25467.00" departSpeed="max" from="-186623965#18" id="131919_410_0" speedFactor="1.1974039293163101" to="297047309#0" type="pkw" />
	<trip depart="25468.00" departSpeed="max" from="186623965#9" id="105921_399_0" speedFactor="1.0611672597071191" to="42925825#0" type="pkw" />
	<trip depart="25471.00" departSpeed="max" from="186623965#9" id="110653_401_0" speedFactor="1.087818007266941" to="42925825#0" type="pkw" />
	<trip depart="25472.00" departSpeed="max" from="297047308" id="156503_420_0" speedFactor="1.05022511413246" to="297047309#0" type="pkw" />
	<trip depart="25475.00" departSpeed="max" from="-4936412" id="136088_411_0" speedFactor="1.058643877216405" to="8716827#0" type="pkw" />
	<trip depart="25477.00" departSpeed="max" from="22917421#3" id="173519_427_0" speedFactor="1.123745467864362" to="186623965#17" type="pkw" />
	<trip depart="25479.00" departSpeed="max" from="23283579#1" id="148727_417_0" speedFactor="1.1311428828016412" to="23283579#1" type="pkw" />
	<trip depart="25481.00" departSpeed="max" from="186623965#9" id="143994_416_0" speedFactor="1.0224065976128058" to="42925825#0" type="pkw" />
	<trip depart="25484.00" departSpeed="max" from="-23283579#1" id="161175_421_0" speedFactor="1.150687889328217" to="-186623965#14" type="pkw" />
	<trip depart="25488.00" departSpeed="max" from="-4936412" id="115107_403_0" speedFactor="1.0665036378911208" to="8716827#0" type="pkw" />
	<trip depart="25490.00" departSpeed="max" from="-4936412" id="110175_401_0" speedFactor="1.1723586017097998" to="155723703#0" type="pkw" />
	<trip depart="25496.00" departSpeed="max" from="-4936412" id="82749_390_0" speedFactor="1.1863026024481917" to="155723703#0" type="pkw" />
	<trip depart="25497.00" departSpeed="max" from="23647118" id="177623_429_0" speedFactor="1.1343279758084612" to="297047309#0" type="pkw" />
	<trip depart="25498.00" departSpeed="max" from="-186623965#18" id="119370_405_0" speedFactor="1.1582251948134705" to="-28675493" type="pkw" />
	<trip depart="25500.00" departSpeed="max" from="-4936412" id="104777_398_0" speedFactor="1.0507913528141515" to="8716827#0" type="pkw" />
	<trip depart="25501.00" departSpeed="max" from="28675510#1" id="162709_422_0" speedFactor="1.1796027130900975" to="42925825#0" type="pkw" />
	<trip depart="25504.00" departSpeed="max" from="186623965#9" id="157758_421_0" speedFactor="1.0049774666133957" to="42925825#0" type="pkw" />
	<trip depart="25514.00" departSpeed="max" from="-42925825#2" id="173176_427_0" speedFactor="1.1987441869588522" to="60909001" type="pkw" />
	<trip depart="25516.00" departSpeed="max" from="23840713#2" id="183261_431_0" speedFactor="1.0765368404079192" to="42925825#0" type="pkw" />
	<trip depart="25517.00" departSpeed="max" from="-186623965#18" id="148572_417_0" speedFactor="1.0606537016684567" to="323450710#0" type="pkw" />
	<trip depart="25518.00" departSpeed="max" from="-42925825#2" id="175527_428_0" speedFactor="1.1181953775719897" to="-297047310#2" type="pkw" />
	<trip depart="25521.00" departSpeed="max" from="-23283472#2" id="155960_420_0" speedFactor="1.1431098104385178" to="23283436" type="pkw" />
	<trip depart="25523.00" departSpeed="max" from="-23283579#1" id="133805_411_0" speedFactor="1.083352555690919" to="23840972" type="pkw" />
	<trip depart="25525.00" departSpeed="max" from="-23283579#1" id="148797_417_0" speedFactor="1.1570103765517878" to="42925825#0" type="pkw" />
	<trip depart="25527.00" departSpeed="max" from="-23283579#1" id="176921_429_0" speedFactor="1.0504047542845187" to="28675510#7" type="pkw" />
	<trip depart="25527.00" departSpeed="max" from="-25166682#0" id="150719_418_0" speedFactor="1.0023795267782112" to="28675510#7" type="pkw" />
	<trip depart="25529.00" departSpeed="max" from="-23283579#1" id="163211_422_0" speedFactor="1.149526343952409" to="-186623965#14" type="pkw" />
	<trip depart="25533.00" departSpeed="max" from="22917421#3" id="172172_426_0" speedFactor="1.1555316166857592" to="42925825#0" type="pkw" />
	<trip depart="25540.00" departSpeed="max" from="-23283579#1" id="163292_422_0" speedFactor="1.021002098227361" to="42925825#0" type="pkw" />
	<trip depart="25540.00" departSpeed="max" from="23283580#0" id="160003_421_0" speedFactor="1.180791281882668" to="23286179#2" type="pkw" />
	<trip depart="25543.00" departSpeed="max" from="-23283579#1" id="164927_423_0" speedFactor="1.0512545915819222" to="297047309#0" type="pkw" />
	<trip depart="25543.00" departSpeed="max" from="-23840712#0" id="164812_422_0" speedFactor="1.168683632414225" to="297047309#0" type="pkw" />
	<trip depart="25544.00" departSpeed="max" from="23840712#1" id="161177_421_0" speedFactor="1.0153159613965757" to="297047309#0" type="pkw" />
	<trip depart="25546.00" departSpeed="max" from="-186623965#18" id="150368_418_0" speedFactor="1.077041868866756" to="-290365598#1" type="pkw" />
	<trip depart="25547.00" departSpeed="max" from="186623965#9" id="165987_424_0" speedFactor="1.0991190787305418" to="42925825#0" type="pkw" />
	<trip depart="25548.00" departSpeed="max" from="-23283579#1" id="142315_415_0" speedFactor="1.0205648019134026" to="297047309#0" type="pkw" />
	<trip depart="25550.00" departSpeed="max" from="-23283579#1" id="121828_406_0" speedFactor="1.0205287574424757" to="23648008#2" type="pkw" />
	<trip depart="25552.00" departSpeed="max" from="22959550#3" id="154381_420_0" speedFactor="1.1469044701847384" to="28675510#7" type="pkw" />
	<trip depart="25552.00" departSpeed="max" from="-23283579#1" id="81429_389_0" speedFactor="1.0113355293256157" to="23647126" type="pkw" />
	<trip depart="25554.00" departSpeed="max" from="-23283579#1" id="161283_421_0" speedFactor="1.0980652293407507" to="-186623965#14" type="pkw" />
	<trip depart="25554.00" departSpeed="max" from="28675510#1" id="188348_433_0" speedFactor="1.1089359120752456" to="42925825#0" type="pkw" />
	<trip depart="25555.00" departSpeed="max" from="23283580#0" id="179877_430_0" speedFactor="1.1303714950791621" to="23286179#2" type="pkw" />
	<trip depart="25556.00" departSpeed="max" from="22917421#3" id="173080_427_0" speedFactor="1.0666649110972337" to="186623965#17" type="pkw" />
	<trip depart="25558.00" departSpeed="max" from="-23283579#1" id="140513_414_0" speedFactor="1.1211611397254113" to="297047309#0" type="pkw" />
	<trip depart="25558.00" departSpeed="max" from="23283580#0" id="154500_420_0" speedFactor="1.1562016215085633" to="23286179#2" type="pkw" />
	<trip depart="25558.00" departSpeed="max" from="23286179#2" id="161086_421_0" speedFactor="1.0351470372558451" to="42925825#0" type="pkw" />
	<trip depart="25559.00" departSpeed="max" from="-42925825#2" id="126208_407_0" speedFactor="1.0199079485041707" to="297047309#0" type="pkw" />
	<trip depart="25559.00" departSpeed="max" from="186623965#9" id="147697_416_0" speedFactor="1.0478836316934341" to="42925825#0" type="pkw" />
	<trip depart="25563.00" departSpeed="max" from="-23283579#1" id="126688_407_0" speedFactor="1.0615473194162224" to="-23840972" type="pkw" />
	<trip depart="25563.00" departSpeed="max" from="-28675510#11" id="113945_402_0" speedFactor="1.0930679470008198" to="297047310#4" type="pkw" />
	<trip depart="25566.00" departSpeed="max" from="-186623965#18" id="116644_404_0" speedFactor="1.1178697535332038" to="297047309#0" type="pkw" />
	<trip depart="25567.00" departSpeed="max" from="28675510#1" id="186152_432_0" speedFactor="1.1122914024919244" to="28675510#7" type="pkw" />
	<trip depart="25568.00" departSpeed="max" from="22959550#0" id="168666_425_0" speedFactor="1.1110947433472265" to="28675510#7" type="pkw" />
	<trip depart="25571.00" departSpeed="max" from="23283580#0" id="171283_426_0" speedFactor="1.0368883156941937" to="28675510#7" type="pkw" />
	<trip depart="25573.00" departSpeed="max" from="186623965#17" id="176781_429_0" speedFactor="1.0529210289317452" to="42925825#0" type="pkw" />
	<trip depart="25573.00" departSpeed="max" from="23840713#2" id="186808_432_0" speedFactor="1.048483282171133" to="28675510#7" type="pkw" />
	<trip depart="25574.00" departSpeed="max" from="-28675510#11" id="148143_417_0" speedFactor="1.1782629901434254" to="8716827#0" type="pkw" />
	<trip depart="25575.00" departSpeed="max" from="23283474" id="183189_431_0" speedFactor="1.1694073808978835" to="22959552#0" type="pkw" />
	<trip depart="25575.00" departSpeed="max" from="-4936412" id="160078_421_0" speedFactor="1.019642583382132" to="8716827#0" type="pkw" />
	<trip depart="25576.00" departSpeed="max" from="-28675510#11" id="129126_408_0" speedFactor="1.1813121648214058" to="-186623965#14" type="pkw" />
	<trip depart="25577.00" departSpeed="max" from="-186623965#18" id="127322_407_0" speedFactor="1.0708523752391366" to="-28675510#5" type="pkw" />
	<trip depart="25580.00" departSpeed="max" from="132042183" id="119014_405_0" speedFactor="1.104081207520007" to="-23283472#2" type="pkw" />
	<trip depart="25581.00" departSpeed="max" from="-4936412" id="163913_422_0" speedFactor="1.1795541010478612" to="8716827#0" type="pkw" />
	<trip depart="25584.00" departSpeed="max" from="23283579#1" id="156093_420_0" speedFactor="1.100612103639357" to="23283579#1" type="pkw" />
	<trip depart="25585.00" departSpeed="max" from="-186623965#18" id="98770_395_0" speedFactor="1.0048818674028037" to="23840935" type="pkw" />
	<trip depart="25589.00" departSpeed="max" from="186623965#9" id="161788_421_0" speedFactor="1.129329599690908" to="-186623965#14" type="pkw" />
	<trip depart="25592.00" departSpeed="max" from="160807420" id="133534_410_0" speedFactor="1.0011859944721389" to="8716827#0" type="pkw" />
	<trip depart="25592.00" departSpeed="max" from="-4936412" id="102131_396_0" speedFactor="1.1560880605372745" to="8716827#0" type="pkw" />
	<trip depart="25593.00" departSpeed="max" from="-297047309#0" id="145098_416_0" speedFactor="1.0502370556547111" to="28675510#7" type="pkw" />
	<trip depart="25594.00" departSpeed="max" from="186623965#9" id="151627_419_0" speedFactor="1.1942048909238092" to="186623965#17" type="pkw" />
	<trip depart="25595.00" departSpeed="max" from="-186623965#18" id="143015_415_0" speedFactor="1.1913997666980038" to="323450710#0" type="pkw" />
	<trip depart="25596.00" departSpeed="max" from="186623965#9" id="147083_416_0" speedFactor="1.0383720736976818" to="-22917421#4" type="pkw" />
	<trip depart="25597.00" departSpeed="max" from="-186623965#18" id="117318_404_0" speedFactor="1.0078474344513544" to="323450710#0" type="pkw" />
	<trip depart="25600.00" departSpeed="max" from="-23283579#1" id="151894_419_0" speedFactor="1.1911153563432983" to="25166682#0" type="pkw" />
	<trip depart="25603.00" departSpeed="max" from="-23283579#1" id="107138_400_0" speedFactor="1.065037029353898" to="297047309#0" type="pkw" />
	<trip depart="25605.00" departSpeed="max" from="290365598#0" id="173908_427_0" speedFactor="1.0533908239894687" to="28675510#7" type="pkw" />