<routes xmlns:xsi="http://www.w3.org/2001/XMLSchema-instance" xsi:noNamespaceSchemaLocation="http://sumo.dlr.de/xsd/routes_file.xsd">
    <vType accel="5" decel="10" id="type1" length="5.00" />
    <vehicle depart="0.00" departPos="random_free" departSpeed="max" id="f_0_0.0" speedFactor="1.0" type="type1">
        <route edges="np13_nt13 nt13_nt14 nt14_nt15 nt15_nt11 nt11_nt7 nt7_nt3 nt3_nt4 nt4_np5" />
    </vehicle>
    <vehicle depart="0.00" departPos="random_free" departSpeed="max" id="f_0_1.0" speedFactor="1.0" type="type1">
        <route edges="np16_nt1 nt1_nt2 nt2_nt3 nt3_nt7 nt7_nt11 nt11_nt15 nt15_nt16 nt16_np8" />
    </vehicle>
    <vehicle depart="0.00" departPos="random_free" departSpeed="max" id="f_0_2.0" speedFactor="1.0" type="type1">
        <route edges="np2_nt2 nt2_nt3 nt3_nt7 nt7_nt11 nt11_nt15 nt15_np10" />
    </vehicle>
    <vehicle depart="0.00" departPos="random_free" departSpeed="max" id="f_0_3.0" speedFactor="1.1" type="type1">
        <route edges="np3_nt3 nt3_nt2 nt2_nt6 nt6_nt10 nt10_nt14 nt14_np11" />
    </vehicle>
    <vehicle depart="8.18" departPos="random_free" departSpeed="max" id="f_0_2.1" speedFactor="1.0" type="type1">
        <route edges="np2_nt2 nt2_nt3 nt3_nt7 nt7_nt11 nt11_nt15 nt15_np10" />
    </vehicle>
    <vehicle depart="8.18" departPos="random_free" departSpeed="max" id="f_0_3.1" speedFactor="1.0" type="type1">
        <route edges="np3_nt3 nt3_nt2 nt2_nt6 nt6_nt10 nt10_nt14 nt14_np11" />
    </vehicle>
    <vehicle depart="13.64" departPos="random_free" departSpeed="max" id="f_0_0.1" speedFactor="1.1" type="type1">
        <route edges="np13_nt13 nt13_nt14 nt14_nt15 nt15_nt11 nt11_nt7 nt7_nt3 nt3_nt4 nt4_np5" />
    </vehicle>
    <vehicle depart="13.64" departPos="random_free" departSpeed="max" id="f_0_1.1" speedFactor="1.0" type="type1">
        <route edges="np16_nt1 nt1_nt2 nt2_nt3 nt3_nt7 nt7_nt11 nt11_nt15 nt15_nt16 nt16_np8" />
    </vehicle>
    <vehicle depart="16.36" departPos="random_free" departSpeed="max" id="f_0_2.2" speedFactor="1.0" type="type1">
        <route edges="np2_nt2 nt2_nt3 nt3_nt7 nt7_nt11 nt11_nt15 nt15_np10" />
    </vehicle>
    <vehicle depart="16.36" departPos="random_free" departSpeed="max" id="f_0_3.2" speedFactor="1.1" type="type1">
        <route edges="np3_nt3 nt3_nt2 nt2_nt6 nt6_nt10 nt10_nt14 nt14_np11" />
    </vehicle>
    <vehicle depart="24.55" departPos="random_free" departSpeed="max" id="f_0_2.3" speedFactor="1.1" type="type1">
        <route edges="np2_nt2 nt2_nt3 nt3_nt7 nt7_nt11 nt11_nt15 nt15_np10" />
    </vehicle>
    <vehicle depart="24.55" departPos="random_free" departSpeed="max" id="f_0_3.3" speedFactor="0.9000000000000001" type="type1">
        <route edges="np3_nt3 nt3_nt2 nt2_nt6 nt6_nt10 nt10_nt14 nt14_np11" />
    </vehicle>
    <vehicle depart="27.27" departPos="random_free" departSpeed="max" id="f_0_0.2" speedFactor="0.8" type="type1">
        <route edges="np13_nt13 nt13_nt14 nt14_nt15 nt15_nt11 nt11_nt7 nt7_nt3 nt3_nt4 nt4_np5" />
    </vehicle>
    <vehicle depart="27.27" departPos="random_free" departSpeed="max" id="f_0_1.2" speedFactor="1.0" type="type1">
        <route edges="np16_nt1 nt1_nt2 nt2_nt3 nt3_nt7 nt7_nt11 nt11_nt15 nt15_nt16 nt16_np8" />
    </vehicle>
    <vehicle depart="32.73" departPos="random_free" departSpeed="max" id="f_0_2.4" speedFactor="1.0" type="type1">
        <route edges="np2_nt2 nt2_nt3 nt3_nt7 nt7_nt11 nt11_nt15 nt15_np10" />
    </vehicle>
    <vehicle depart="32.73" departPos="random_free" departSpeed="max" id="f_0_3.4" speedFactor="1.0" type="type1">
        <route edges="np3_nt3 nt3_nt2 nt2_nt6 nt6_nt10 nt10_nt14 nt14_np11" />
    </vehicle>
    <vehicle depart="40.91" departPos="random_free" departSpeed="max" id="f_0_0.3" speedFactor="1.0" type="type1">
        <route edges="np13_nt13 nt13_nt14 nt14_nt15 nt15_nt11 nt11_nt7 nt7_nt3 nt3_nt4 nt4_np5" />
    </vehicle>
    <vehicle depart="40.91" departPos="random_free" departSpeed="max" id="f_0_1.3" speedFactor="1.0" type="type1">
        <route edges="np16_nt1 nt1_nt2 nt2_nt3 nt3_nt7 nt7_nt11 nt11_nt15 nt15_nt16 nt16_np8" />
    </vehicle>
    <vehicle depart="40.91" departPos="random_free" departSpeed="max" id="f_0_2.5" speedFactor="0.8" type="type1">
        <route edges="np2_nt2 nt2_nt3 nt3_nt7 nt7_nt11 nt11_nt15 nt15_np10" />
    </vehicle>
    <vehicle depart="40.91" departPos="random_free" departSpeed="max" id="f_0_3.5" speedFactor="1.0" type="type1">
        <route edges="np3_nt3 nt3_nt2 nt2_nt6 nt6_nt10 nt10_nt14 nt14_np11" />
    </vehicle>
    <vehicle depart="49.09" departPos="random_free" departSpeed="max" id="f_0_2.6" speedFactor="1.1" type="type1">
        <route edges="np2_nt2 nt2_nt3 nt3_nt7 nt7_nt11 nt11_nt15 nt15_np10" />
    </vehicle>
    <vehicle depart="49.09" departPos="random_free" departSpeed="max" id="f_0_3.6" speedFactor="1.0" type="type1">
        <route edges="np3_nt3 nt3_nt2 nt2_nt6 nt6_nt10 nt10_nt14 nt14_np11" />
    </vehicle>
    <vehicle depart="54.54" departPos="random_free" departSpeed="max" id="f_0_0.4" speedFactor="1.1" type="type1">
        <route edges="np13_nt13 nt13_nt14 nt14_nt15 nt15_nt11 nt11_nt7 nt7_nt3 nt3_nt4 nt4_np5" />
    </vehicle>
    <vehicle depart="54.54" departPos="random_free" departSpeed="max" id="f_0_1.4" speedFactor="1.0" type="type1">
        <route edges="np16_nt1 nt1_nt2 nt2_nt3 nt3_nt7 nt7_nt11 nt11_nt15 nt15_nt16 nt16_np8" />
    </vehicle>
    <vehicle depart="57.27" departPos="random_free" departSpeed="max" id="f_0_2.7" speedFactor="1.1" type="type1">
        <route edges="np2_nt2 nt2_nt3 nt3_nt7 nt7_nt11 nt11_nt15 nt15_np10" />
    </vehicle>
    <vehicle depart="57.27" departPos="random_free" departSpeed="max" id="f_0_3.7" speedFactor="1.0" type="type1">
        <route edges="np3_nt3 nt3_nt2 nt2_nt6 nt6_nt10 nt10_nt14 nt14_np11" />
    </vehicle>
    <vehicle depart="65.46" departPos="random_free" departSpeed="max" id="f_0_2.8" speedFactor="1.0" type="type1">
        <route edges="np2_nt2 nt2_nt3 nt3_nt7 nt7_nt11 nt11_nt15 nt15_np10" />
    </vehicle>
    <vehicle depart="65.46" departPos="random_free" departSpeed="max" id="f_0_3.8" speedFactor="1.1" type="type1">
        <route edges="np3_nt3 nt3_nt2 nt2_nt6 nt6_nt10 nt10_nt14 nt14_np11" />
    </vehicle>
    <vehicle depart="68.18" departPos="random_free" departSpeed="max" id="f_0_0.5" speedFactor="1.0" type="type1">
        <route edges="np13_nt13 nt13_nt14 nt14_nt15 nt15_nt11 nt11_nt7 nt7_nt3 nt3_nt4 nt4_np5" />
    </vehicle>
    <vehicle depart="68.18" departPos="random_free" departSpeed="max" id="f_0_1.5" speedFactor="1.0" type="type1">
        <route edges="np16_nt1 nt1_nt2 nt2_nt3 nt3_nt7 nt7_nt11 nt11_nt15 nt15_nt16 nt16_np8" />
    </vehicle>
    <vehicle depart="73.64" departPos="random_free" departSpeed="max" id="f_0_2.9" speedFactor="1.0" type="type1">
        <route edges="np2_nt2 nt2_nt3 nt3_nt7 nt7_nt11 nt11_nt15 nt15_np10" />
    </vehicle>
    <vehicle depart="73.64" departPos="random_free" departSpeed="max" id="f_0_3.9" speedFactor="1.1" type="type1">
        <route edges="np3_nt3 nt3_nt2 nt2_nt6 nt6_nt10 nt10_nt14 nt14_np11" />
    </vehicle>
    <vehicle depart="81.82" departPos="random_free" departSpeed="max" id="f_0_0.6" speedFactor="1.0" type="type1">
        <route edges="np13_nt13 nt13_nt14 nt14_nt15 nt15_nt11 nt11_nt7 nt7_nt3 nt3_nt4 nt4_np5" />
    </vehicle>
    <vehicle depart="81.82" departPos="random_free" departSpeed="max" id="f_0_1.6" speedFactor="1.0" type="type1">
        <route edges="np16_nt1 nt1_nt2 nt2_nt3 nt3_nt7 nt7_nt11 nt11_nt15 nt15_nt16 nt16_np8" />
    </vehicle>
    <vehicle depart="81.82" departPos="random_free" departSpeed="max" id="f_0_2.10" speedFactor="1.0" type="type1">
        <route edges="np2_nt2 nt2_nt3 nt3_nt7 nt7_nt11 nt11_nt15 nt15_np10" />
    </vehicle>
    <vehicle depart="81.82" departPos="random_free" departSpeed="max" id="f_0_3.10" speedFactor="1.0" type="type1">
        <route edges="np3_nt3 nt3_nt2 nt2_nt6 nt6_nt10 nt10_nt14 nt14_np11" />
    </vehicle>
    <vehicle depart="90.00" departPos="random_free" departSpeed="max" id="f_0_2.11" speedFactor="1.1" type="type1">
        <route edges="np2_nt2 nt2_nt3 nt3_nt7 nt7_nt11 nt11_nt15 nt15_np10" />
    </vehicle>
    <vehicle depart="90.00" departPos="random_free" departSpeed="max" id="f_0_3.11" speedFactor="1.0" type="type1">
        <route edges="np3_nt3 nt3_nt2 nt2_nt6 nt6_nt10 nt10_nt14 nt14_np11" />
    </vehicle>
    <vehicle depart="95.45" departPos="random_free" departSpeed="max" id="f_0_0.7" speedFactor="1.1" type="type1">
        <route edges="np13_nt13 nt13_nt14 nt14_nt15 nt15_nt11 nt11_nt7 nt7_nt3 nt3_nt4 nt4_np5" />
    </vehicle>
    <vehicle depart="95.45" departPos="random_free" departSpeed="max" id="f_0_1.7" speedFactor="1.0" type="type1">
        <route edges="np16_nt1 nt1_nt2 nt2_nt3 nt3_nt7 nt7_nt11 nt11_nt15 nt15_nt16 nt16_np8" />
    </vehicle>
    <vehicle depart="98.18" departPos="random_free" departSpeed="max" id="f_0_2.12" speedFactor="1.0" type="type1">
        <route edges="np2_nt2 nt2_nt3 nt3_nt7 nt7_nt11 nt11_nt15 nt15_np10" />
    </vehicle>
    <vehicle depart="98.18" departPos="random_free" departSpeed="max" id="f_0_3.12" speedFactor="1.0" type="type1">
        <route edges="np3_nt3 nt3_nt2 nt2_nt6 nt6_nt10 nt10_nt14 nt14_np11" />
    </vehicle>
    <vehicle depart="106.37" departPos="random_free" departSpeed="max" id="f_0_2.13" speedFactor="1.0" type="type1">
        <route edges="np2_nt2 nt2_nt3 nt3_nt7 nt7_nt11 nt11_nt15 nt15_np10" />
    </vehicle>
    <vehicle depart="106.37" departPos="random_free" departSpeed="max" id="f_0_3.13" speedFactor="1.1" type="type1">
        <route edges="np3_nt3 nt3_nt2 nt2_nt6 nt6_nt10 nt10_nt14 nt14_np11" />
    </vehicle>
    <vehicle depart="109.09" departPos="random_free" departSpeed="max" id="f_0_0.8" speedFactor="1.0" type="type1">
        <route edges="np13_nt13 nt13_nt14 nt14_nt15 nt15_nt11 nt11_nt7 nt7_nt3 nt3_nt4 nt4_np5" />
    </vehicle>
    <vehicle depart="109.09" departPos="random_free" departSpeed="max" id="f_0_1.8" speedFactor="1.0" type="type1">
        <route edges="np16_nt1 nt1_nt2 nt2_nt3 nt3_nt7 nt7_nt11 nt11_nt15 nt15_nt16 nt16_np8" />
    </vehicle>
    <vehicle depart="114.55" departPos="random_free" departSpeed="max" id="f_0_2.14" speedFactor="0.8" type="type1">
        <route edges="np2_nt2 nt2_nt3 nt3_nt7 nt7_nt11 nt11_nt15 nt15_np10" />
    </vehicle>
    <vehicle depart="114.55" departPos="random_free" departSpeed="max" id="f_0_3.14" speedFactor="1.0" type="type1">
        <route edges="np3_nt3 nt3_nt2 nt2_nt6 nt6_nt10 nt10_nt14 nt14_np11" />
    </vehicle>
    <vehicle depart="122.72" departPos="random_free" departSpeed="max" id="f_0_0.9" speedFactor="1.0" type="type1">
        <route edges="np13_nt13 nt13_nt14 nt14_nt15 nt15_nt11 nt11_nt7 nt7_nt3 nt3_nt4 nt4_np5" />
    </vehicle>
    <vehicle depart="122.72" departPos="random_free" departSpeed="max" id="f_0_1.9" speedFactor="1.0" type="type1">
        <route edges="np16_nt1 nt1_nt2 nt2_nt3 nt3_nt7 nt7_nt11 nt11_nt15 nt15_nt16 nt16_np8" />
    </vehicle>
    <vehicle depart="122.73" departPos="random_free" departSpeed="max" id="f_0_2.15" speedFactor="1.0" type="type1">
        <route edges="np2_nt2 nt2_nt3 nt3_nt7 nt7_nt11 nt11_nt15 nt15_np10" />
    </vehicle>
    <vehicle depart="122.73" departPos="random_free" departSpeed="max" id="f_0_3.15" speedFactor="1.0" type="type1">
        <route edges="np3_nt3 nt3_nt2 nt2_nt6 nt6_nt10 nt10_nt14 nt14_np11" />
    </vehicle>
    <vehicle depart="130.91" departPos="random_free" departSpeed="max" id="f_0_2.16" speedFactor="1.0" type="type1">
        <route edges="np2_nt2 nt2_nt3 nt3_nt7 nt7_nt11 nt11_nt15 nt15_np10" />
    </vehicle>
    <vehicle depart="130.91" departPos="random_free" departSpeed="max" id="f_0_3.16" speedFactor="1.0" type="type1">
        <route edges="np3_nt3 nt3_nt2 nt2_nt6 nt6_nt10 nt10_nt14 nt14_np11" />
    </vehicle>
    <vehicle depart="136.36" departPos="random_free" departSpeed="max" id="f_0_0.10" speedFactor="1.0" type="type1">
        <route edges="np13_nt13 nt13_nt14 nt14_nt15 nt15_nt11 nt11_nt7 nt7_nt3 nt3_nt4 nt4_np5" />
    </vehicle>
    <vehicle depart="136.36" departPos="random_free" departSpeed="max" id="f_0_1.10" speedFactor="1.1" type="type1">
        <route edges="np16_nt1 nt1_nt2 nt2_nt3 nt3_nt7 nt7_nt11 nt11_nt15 nt15_nt16 nt16_np8" />
    </vehicle>
    <vehicle depart="139.09" departPos="random_free" departSpeed="max" id="f_0_2.17" speedFactor="1.0" type="type1">
        <route edges="np2_nt2 nt2_nt3 nt3_nt7 nt7_nt11 nt11_nt15 nt15_np10" />
    </vehicle>
    <vehicle depart="139.09" departPos="random_free" departSpeed="max" id="f_0_3.17" speedFactor="1.1" type="type1">
        <route edges="np3_nt3 nt3_nt2 nt2_nt6 nt6_nt10 nt10_nt14 nt14_np11" />
    </vehicle>
    <vehicle depart="147.28" departPos="random_free" departSpeed="max" id="f_0_2.18" speedFactor="1.1" type="type1">
        <route edges="np2_nt2 nt2_nt3 nt3_nt7 nt7_nt11 nt11_nt15 nt15_np10" />
    </vehicle>
    <vehicle depart="147.28" departPos="random_free" departSpeed="max" id="f_0_3.18" speedFactor="1.1" type="type1">
        <route edges="np3_nt3 nt3_nt2 nt2_nt6 nt6_nt10 nt10_nt14 nt14_np11" />
    </vehicle>
    <vehicle depart="150.00" departPos="random_free" departSpeed="max" id="f_0_0.11" speedFactor="1.0" type="type1">
        <route edges="np13_nt13 nt13_nt14 nt14_nt15 nt15_nt11 nt11_nt7 nt7_nt3 nt3_nt4 nt4_np5" />
    </vehicle>
    <vehicle depart="150.00" departPos="random_free" departSpeed="max" id="f_0_1.11" speedFactor="1.0" type="type1">
        <route edges="np16_nt1 nt1_nt2 nt2_nt3 nt3_nt7 nt7_nt11 nt11_nt15 nt15_nt16 nt16_np8" />
    </vehicle>
    <vehicle depart="155.46" departPos="random_free" departSpeed="max" id="f_0_2.19" speedFactor="1.0" type="type1">
        <route edges="np2_nt2 nt2_nt3 nt3_nt7 nt7_nt11 nt11_nt15 nt15_np10" />
    </vehicle>
    <vehicle depart="155.46" departPos="random_free" departSpeed="max" id="f_0_3.19" speedFactor="0.8" type="type1">
        <route edges="np3_nt3 nt3_nt2 nt2_nt6 nt6_nt10 nt10_nt14 nt14_np11" />
    </vehicle>
    <vehicle depart="163.63" departPos="random_free" departSpeed="max" id="f_0_0.12" speedFactor="1.0" type="type1">
        <route edges="np13_nt13 nt13_nt14 nt14_nt15 nt15_nt11 nt11_nt7 nt7_nt3 nt3_nt4 nt4_np5" />
    </vehicle>
    <vehicle depart="163.63" departPos="random_free" departSpeed="max" id="f_0_1.12" speedFactor="1.0" type="type1">
        <route edges="np16_nt1 nt1_nt2 nt2_nt3 nt3_nt7 nt7_nt11 nt11_nt15 nt15_nt16 nt16_np8" />
    </vehicle>
    <vehicle depart="163.64" departPos="random_free" departSpeed="max" id="f_0_2.20" speedFactor="1.1" type="type1">
        <route edges="np2_nt2 nt2_nt3 nt3_nt7 nt7_nt11 nt11_nt15 nt15_np10" />
    </vehicle>
    <vehicle depart="163.64" departPos="random_free" departSpeed="max" id="f_0_3.20" speedFactor="1.0" type="type1">
        <route edges="np3_nt3 nt3_nt2 nt2_nt6 nt6_nt10 nt10_nt14 nt14_np11" />
    </vehicle>
    <vehicle depart="171.82" departPos="random_free" departSpeed="max" id="f_0_2.21" speedFactor="1.0" type="type1">
        <route edges="np2_nt2 nt2_nt3 nt3_nt7 nt7_nt11 nt11_nt15 nt15_np10" />
    </vehicle>
    <vehicle depart="171.82" departPos="random_free" departSpeed="max" id="f_0_3.21" speedFactor="0.8" type="type1">
        <route edges="np3_nt3 nt3_nt2 nt2_nt6 nt6_nt10 nt10_nt14 nt14_np11" />
    </vehicle>
    <vehicle depart="177.27" departPos="random_free" departSpeed="max" id="f_0_0.13" speedFactor="1.1" type="type1">
        <route edges="np13_nt13 nt13_nt14 nt14_nt15 nt15_nt11 nt11_nt7 nt7_nt3 nt3_nt4 nt4_np5" />
    </vehicle>
    <vehicle depart="177.27" departPos="random_free" departSpeed="max" id="f_0_1.13" speedFactor="1.1" type="type1">
        <route edges="np16_nt1 nt1_nt2 nt2_nt3 nt3_nt7 nt7_nt11 nt11_nt15 nt15_nt16 nt16_np8" />
    </vehicle>
    <vehicle depart="180.00" departPos="random_free" departSpeed="max" id="f_0_2.22" speedFactor="1.0" type="type1">
        <route edges="np2_nt2 nt2_nt3 nt3_nt7 nt7_nt11 nt11_nt15 nt15_np10" />
    </vehicle>
    <vehicle depart="180.00" departPos="random_free" departSpeed="max" id="f_0_3.22" speedFactor="1.0" type="type1">
        <route edges="np3_nt3 nt3_nt2 nt2_nt6 nt6_nt10 nt10_nt14 nt14_np11" />
    </vehicle>
    <vehicle depart="188.19" departPos="random_free" departSpeed="max" id="f_0_2.23" speedFactor="1.1" type="type1">
        <route edges="np2_nt2 nt2_nt3 nt3_nt7 nt7_nt11 nt11_nt15 nt15_np10" />
    </vehicle>
    <vehicle depart="188.19" departPos="random_free" departSpeed="max" id="f_0_3.23" speedFactor="1.1" type="type1">
        <route edges="np3_nt3 nt3_nt2 nt2_nt6 nt6_nt10 nt10_nt14 nt14_np11" />
    </vehicle>
    <vehicle depart="190.90" departPos="random_free" departSpeed="max" id="f_0_0.14" speedFactor="1.0" type="type1">
        <route edges="np13_nt13 nt13_nt14 nt14_nt15 nt15_nt11 nt11_nt7 nt7_nt3 nt3_nt4 nt4_np5" />
    </vehicle>
    <vehicle depart="190.90" departPos="random_free" departSpeed="max" id="f_0_1.14" speedFactor="1.0" type="type1">
        <route edges="np16_nt1 nt1_nt2 nt2_nt3 nt3_nt7 nt7_nt11 nt11_nt15 nt15_nt16 nt16_np8" />
    </vehicle>
    <vehicle depart="196.37" departPos="random_free" departSpeed="max" id="f_0_2.24" speedFactor="1.0" type="type1">
        <route edges="np2_nt2 nt2_nt3 nt3_nt7 nt7_nt11 nt11_nt15 nt15_np10" />
    </vehicle>
    <vehicle depart="196.37" departPos="random_free" departSpeed="max" id="f_0_3.24" speedFactor="1.1" type="type1">
        <route edges="np3_nt3 nt3_nt2 nt2_nt6 nt6_nt10 nt10_nt14 nt14_np11" />
    </vehicle>
    <vehicle depart="204.54" departPos="random_free" departSpeed="max" id="f_0_0.15" speedFactor="1.0" type="type1">
        <route edges="np13_nt13 nt13_nt14 nt14_nt15 nt15_nt11 nt11_nt7 nt7_nt3 nt3_nt4 nt4_np5" />
    </vehicle>
    <vehicle depart="204.54" departPos="random_free" departSpeed="max" id="f_0_1.15" speedFactor="1.0" type="type1">
        <route edges="np16_nt1 nt1_nt2 nt2_nt3 nt3_nt7 nt7_nt11 nt11_nt15 nt15_nt16 nt16_np8" />
    </vehicle>
    <vehicle depart="204.55" departPos="random_free" departSpeed="max" id="f_0_2.25" speedFactor="1.0" type="type1">
        <route edges="np2_nt2 nt2_nt3 nt3_nt7 nt7_nt11 nt11_nt15 nt15_np10" />
    </vehicle>
    <vehicle depart="204.55" departPos="random_free" departSpeed="max" id="f_0_3.25" speedFactor="1.0" type="type1">
        <route edges="np3_nt3 nt3_nt2 nt2_nt6 nt6_nt10 nt10_nt14 nt14_np11" />
    </vehicle>
    <vehicle depart="212.73" departPos="random_free" departSpeed="max" id="f_0_2.26" speedFactor="1.1" type="type1">
        <route edges="np2_nt2 nt2_nt3 nt3_nt7 nt7_nt11 nt11_nt15 nt15_np10" />
    </vehicle>
    <vehicle depart="212.73" departPos="random_free" departSpeed="max" id="f_0_3.26" speedFactor="1.0" type="type1">
        <route edges="np3_nt3 nt3_nt2 nt2_nt6 nt6_nt10 nt10_nt14 nt14_np11" />
    </vehicle>
    <vehicle depart="218.18" departPos="random_free" departSpeed="max" id="f_0_0.16" speedFactor="1.1" type="type1">
        <route edges="np13_nt13 nt13_nt14 nt14_nt15 nt15_nt11 nt11_nt7 nt7_nt3 nt3_nt4 nt4_np5" />
    </vehicle>
    <vehicle depart="218.18" departPos="random_free" departSpeed="max" id="f_0_1.16" speedFactor="1.1" type="type1">
        <route edges="np16_nt1 nt1_nt2 nt2_nt3 nt3_nt7 nt7_nt11 nt11_nt15 nt15_nt16 nt16_np8" />
    </vehicle>
    <vehicle depart="220.91" departPos="random_free" departSpeed="max" id="f_0_2.27" speedFactor="1.0" type="type1">
        <route edges="np2_nt2 nt2_nt3 nt3_nt7 nt7_nt11 nt11_nt15 nt15_np10" />
    </vehicle>
    <vehicle depart="220.91" departPos="random_free" departSpeed="max" id="f_0_3.27" speedFactor="1.0" type="type1">
        <route edges="np3_nt3 nt3_nt2 nt2_nt6 nt6_nt10 nt10_nt14 nt14_np11" />
    </vehicle>
    <vehicle depart="229.10" departPos="random_free" departSpeed="max" id="f_0_2.28" speedFactor="1.0" type="type1">
        <route edges="np2_nt2 nt2_nt3 nt3_nt7 nt7_nt11 nt11_nt15 nt15_np10" />
    </vehicle>
    <vehicle depart="229.10" departPos="random_free" departSpeed="max" id="f_0_3.28" speedFactor="1.0" type="type1">
        <route edges="np3_nt3 nt3_nt2 nt2_nt6 nt6_nt10 nt10_nt14 nt14_np11" />
    </vehicle>
    <vehicle depart="231.81" departPos="random_free" departSpeed="max" id="f_0_0.17" speedFactor="1.0" type="type1">
        <route edges="np13_nt13 nt13_nt14 nt14_nt15 nt15_nt11 nt11_nt7 nt7_nt3 nt3_nt4 nt4_np5" />
    </vehicle>
    <vehicle depart="231.81" departPos="random_free" departSpeed="max" id="f_0_1.17" speedFactor="1.0" type="type1">
        <route edges="np16_nt1 nt1_nt2 nt2_nt3 nt3_nt7 nt7_nt11 nt11_nt15 nt15_nt16 nt16_np8" />
    </vehicle>
    <vehicle depart="237.28" departPos="random_free" departSpeed="max" id="f_0_2.29" speedFactor="1.0" type="type1">
        <route edges="np2_nt2 nt2_nt3 nt3_nt7 nt7_nt11 nt11_nt15 nt15_np10" />
    </vehicle>
    <vehicle depart="237.28" departPos="random_free" departSpeed="max" id="f_0_3.29" speedFactor="1.0" type="type1">
        <route edges="np3_nt3 nt3_nt2 nt2_nt6 nt6_nt10 nt10_nt14 nt14_np11" />
    </vehicle>
    <vehicle depart="245.45" departPos="random_free" departSpeed="max" id="f_0_0.18" speedFactor="1.0" type="type1">
        <route edges="np13_nt13 nt13_nt14 nt14_nt15 nt15_nt11 nt11_nt7 nt7_nt3 nt3_nt4 nt4_np5" />
    </vehicle>
    <vehicle depart="245.45" departPos="random_free" departSpeed="max" id="f_0_1.18" speedFactor="1.0" type="type1">
        <route edges="np16_nt1 nt1_nt2 nt2_nt3 nt3_nt7 nt7_nt11 nt11_nt15 nt15_nt16 nt16_np8" />
    </vehicle>
    <vehicle depart="245.46" departPos="random_free" departSpeed="max" id="f_0_2.30" speedFactor="1.0" type="type1">
        <route edges="np2_nt2 nt2_nt3 nt3_nt7 nt7_nt11 nt11_nt15 nt15_np10" />
    </vehicle>
    <vehicle depart="245.46" departPos="random_free" departSpeed="max" id="f_0_3.30" speedFactor="1.0" type="type1">
        <route edges="np3_nt3 nt3_nt2 nt2_nt6 nt6_nt10 nt10_nt14 nt14_np11" />
    </vehicle>
    <vehicle depart="253.64" departPos="random_free" departSpeed="max" id="f_0_2.31" speedFactor="1.0" type="type1">
        <route edges="np2_nt2 nt2_nt3 nt3_nt7 nt7_nt11 nt11_nt15 nt15_np10" />
    </vehicle>
    <vehicle depart="253.64" departPos="random_free" departSpeed="max" id="f_0_3.31" speedFactor="1.0" type="type1">
        <route edges="np3_nt3 nt3_nt2 nt2_nt6 nt6_nt10 nt10_nt14 nt14_np11" />
    </vehicle>
    <vehicle depart="259.08" departPos="random_free" departSpeed="max" id="f_0_0.19" speedFactor="1.0" type="type1">
        <route edges="np13_nt13 nt13_nt14 nt14_nt15 nt15_nt11 nt11_nt7 nt7_nt3 nt3_nt4 nt4_np5" />
    </vehicle>
    <vehicle depart="259.08" departPos="random_free" departSpeed="max" id="f_0_1.19" speedFactor="1.0" type="type1">
        <route edges="np16_nt1 nt1_nt2 nt2_nt3 nt3_nt7 nt7_nt11 nt11_nt15 nt15_nt16 nt16_np8" />
    </vehicle>
    <vehicle depart="261.82" departPos="random_free" departSpeed="max" id="f_0_2.32" speedFactor="1.0" type="type1">
        <route edges="np2_nt2 nt2_nt3 nt3_nt7 nt7_nt11 nt11_nt15 nt15_np10" />
    </vehicle>
    <vehicle depart="261.82" departPos="random_free" departSpeed="max" id="f_0_3.32" speedFactor="1.0" type="type1">
        <route edges="np3_nt3 nt3_nt2 nt2_nt6 nt6_nt10 nt10_nt14 nt14_np11" />
    </vehicle>
    <vehicle depart="270.01" departPos="random_free" departSpeed="max" id="f_0_2.33" speedFactor="1.0" type="type1">
        <route edges="np2_nt2 nt2_nt3 nt3_nt7 nt7_nt11 nt11_nt15 nt15_np10" />
    </vehicle>
    <vehicle depart="270.01" departPos="random_free" departSpeed="max" id="f_0_3.33" speedFactor="1.0" type="type1">
        <route edges="np3_nt3 nt3_nt2 nt2_nt6 nt6_nt10 nt10_nt14 nt14_np11" />
    </vehicle>
    <vehicle depart="272.72" departPos="random_free" departSpeed="max" id="f_0_0.20" speedFactor="1.1" type="type1">
        <route edges="np13_nt13 nt13_nt14 nt14_nt15 nt15_nt11 nt11_nt7 nt7_nt3 nt3_nt4 nt4_np5" />
    </vehicle>
    <vehicle depart="272.72" departPos="random_free" departSpeed="max" id="f_0_1.20" speedFactor="1.0" type="type1">
        <route edges="np16_nt1 nt1_nt2 nt2_nt3 nt3_nt7 nt7_nt11 nt11_nt15 nt15_nt16 nt16_np8" />
    </vehicle>
    <vehicle depart="278.19" departPos="random_free" departSpeed="max" id="f_0_2.34" speedFactor="1.0" type="type1">
        <route edges="np2_nt2 nt2_nt3 nt3_nt7 nt7_nt11 nt11_nt15 nt15_np10" />
    </vehicle>
    <vehicle depart="278.19" departPos="random_free" departSpeed="max" id="f_0_3.34" speedFactor="0.9000000000000001" type="type1">
        <route edges="np3_nt3 nt3_nt2 nt2_nt6 nt6_nt10 nt10_nt14 nt14_np11" />
    </vehicle>
    <vehicle depart="286.36" departPos="random_free" departSpeed="max" id="f_0_0.21" speedFactor="1.0" type="type1">
        <route edges="np13_nt13 nt13_nt14 nt14_nt15 nt15_nt11 nt11_nt7 nt7_nt3 nt3_nt4 nt4_np5" />
    </vehicle>
    <vehicle depart="286.36" departPos="random_free" departSpeed="max" id="f_0_1.21" speedFactor="1.0" type="type1">
        <route edges="np16_nt1 nt1_nt2 nt2_nt3 nt3_nt7 nt7_nt11 nt11_nt15 nt15_nt16 nt16_np8" />
    </vehicle>
    <vehicle depart="286.37" departPos="random_free" departSpeed="max" id="f_0_2.35" speedFactor="1.0" type="type1">
        <route edges="np2_nt2 nt2_nt3 nt3_nt7 nt7_nt11 nt11_nt15 nt15_np10" />
    </vehicle>
    <vehicle depart="286.37" departPos="random_free" departSpeed="max" id="f_0_3.35" speedFactor="1.0" type="type1">
        <route edges="np3_nt3 nt3_nt2 nt2_nt6 nt6_nt10 nt10_nt14 nt14_np11" />
    </vehicle>
    <vehicle depart="294.55" departPos="random_free" departSpeed="max" id="f_0_2.36" speedFactor="1.0" type="type1">
        <route edges="np2_nt2 nt2_nt3 nt3_nt7 nt7_nt11 nt11_nt15 nt15_np10" />
    </vehicle>
    <vehicle depart="294.55" departPos="random_free" departSpeed="max" id="f_0_3.36" speedFactor="1.1" type="type1">
        <route edges="np3_nt3 nt3_nt2 nt2_nt6 nt6_nt10 nt10_nt14 nt14_np11" />
    </vehicle>
    <vehicle depart="299.99" departPos="random_free" departSpeed="max" id="f_0_0.22" speedFactor="1.0" type="type1">
        <route edges="np13_nt13 nt13_nt14 nt14_nt15 nt15_nt11 nt11_nt7 nt7_nt3 nt3_nt4 nt4_np5" />
    </vehicle>
    <vehicle depart="299.99" departPos="random_free" departSpeed="max" id="f_0_1.22" speedFactor="1.0" type="type1">
        <route edges="np16_nt1 nt1_nt2 nt2_nt3 nt3_nt7 nt7_nt11 nt11_nt15 nt15_nt16 nt16_np8" />
    </vehicle>
    <vehicle depart="300.00" departPos="random_free" departSpeed="max" id="f_1_0.0" speedFactor="1.0" type="type1">
        <route edges="np13_nt13 nt13_nt14 nt14_nt15 nt15_nt11 nt11_nt7 nt7_nt3 nt3_nt4 nt4_np5" />
    </vehicle>
    <vehicle depart="300.00" departPos="random_free" departSpeed="max" id="f_1_1.0" speedFactor="1.0" type="type1">
        <route edges="np16_nt1 nt1_nt2 nt2_nt3 nt3_nt7 nt7_nt11 nt11_nt15 nt15_nt16 nt16_np8" />
    </vehicle>
    <vehicle depart="300.00" departPos="random_free" departSpeed="max" id="f_1_2.0" speedFactor="0.8" type="type1">
        <route edges="np2_nt2 nt2_nt3 nt3_nt7 nt7_nt11 nt11_nt15 nt15_np10" />
    </vehicle>
    <vehicle depart="300.00" departPos="random_free" departSpeed="max" id="f_1_3.0" speedFactor="1.0" type="type1">
        <route edges="np3_nt3 nt3_nt2 nt2_nt6 nt6_nt10 nt10_nt14 nt14_np11" />
    </vehicle>
    <vehicle depart="304.68" departPos="random_free" departSpeed="max" id="f_1_2.1" speedFactor="1.0" type="type1">
        <route edges="np2_nt2 nt2_nt3 nt3_nt7 nt7_nt11 nt11_nt15 nt15_np10" />
    </vehicle>
    <vehicle depart="304.68" departPos="random_free" departSpeed="max" id="f_1_3.1" speedFactor="1.1" type="type1">
        <route edges="np3_nt3 nt3_nt2 nt2_nt6 nt6_nt10 nt10_nt14 nt14_np11" />
    </vehicle>
    <vehicle depart="307.81" departPos="random_free" departSpeed="max" id="f_1_0.1" speedFactor="1.1" type="type1">
        <route edges="np13_nt13 nt13_nt14 nt14_nt15 nt15_nt11 nt11_nt7 nt7_nt3 nt3_nt4 nt4_np5" />
    </vehicle>
    <vehicle depart="307.81" departPos="random_free" departSpeed="max" id="f_1_1.1" speedFactor="1.0" type="type1">
        <route edges="np16_nt1 nt1_nt2 nt2_nt3 nt3_nt7 nt7_nt11 nt11_nt15 nt15_nt16 nt16_np8" />
    </vehicle>
    <vehicle depart="309.35" departPos="random_free" departSpeed="max" id="f_1_2.2" speedFactor="1.0" type="type1">
        <route edges="np2_nt2 nt2_nt3 nt3_nt7 nt7_nt11 nt11_nt15 nt15_np10" />
    </vehicle>
    <vehicle depart="309.35" departPos="random_free" departSpeed="max" id="f_1_3.2" speedFactor="0.8" type="type1">
        <route edges="np3_nt3 nt3_nt2 nt2_nt6 nt6_nt10 nt10_nt14 nt14_np11" />
    </vehicle>
    <vehicle depart="314.03" departPos="random_free" departSpeed="max" id="f_1_2.3" speedFactor="1.1" type="type1">
        <route edges="np2_nt2 nt2_nt3 nt3_nt7 nt7_nt11 nt11_nt15 nt15_np10" />
    </vehicle>
    <vehicle depart="314.03" departPos="random_free" departSpeed="max" id="f_1_3.3" speedFactor="1.0" type="type1">
        <route edges="np3_nt3 nt3_nt2 nt2_nt6 nt6_nt10 nt10_nt14 nt14_np11" />
    </vehicle>
    <vehicle depart="315.62" departPos="random_free" departSpeed="max" id="f_1_0.2" speedFactor="1.1" type="type1">
        <route edges="np13_nt13 nt13_nt14 nt14_nt15 nt15_nt11 nt11_nt7 nt7_nt3 nt3_nt4 nt4_np5" />
    </vehicle>
    <vehicle depart="315.62" departPos="random_free" departSpeed="max" id="f_1_1.2" speedFactor="1.1" type="type1">
        <route edges="np16_nt1 nt1_nt2 nt2_nt3 nt3_nt7 nt7_nt11 nt11_nt15 nt15_nt16 nt16_np8" />
    </vehicle>
    <vehicle depart="318.70" departPos="random_free" departSpeed="max" id="f_1_2.4" speedFactor="1.0" type="type1">
        <route edges="np2_nt2 nt2_nt3 nt3_nt7 nt7_nt11 nt11_nt15 nt15_np10" />
    </vehicle>
    <vehicle depart="318.70" departPos="random_free" departSpeed="max" id="f_1_3.4" speedFactor="0.8" type="type1">
        <route edges="np3_nt3 nt3_nt2 nt2_nt6 nt6_nt10 nt10_nt14 nt14_np11" />
    </vehicle>
    <vehicle depart="323.38" departPos="random_free" departSpeed="max" id="f_1_2.5" speedFactor="1.0" type="type1">
        <route edges="np2_nt2 nt2_nt3 nt3_nt7 nt7_nt11 nt11_nt15 nt15_np10" />