<routes xmlns:xsi="http://www.w3.org/2001/XMLSchema-instance" xsi:noNamespaceSchemaLocation="http://sumo.dlr.de/xsd/routes_file.xsd">
	<vType id="pkw" length="4.3" minGap="1.5" speedDev="0.1" vClass="passenger" />
	<trip depart="25200.00" departSpeed="max" from="-23283579#1" id="137312_412_0" speedFactor="1.0" to="23283436" type="pkw" />
	<trip depart="25200.00" departSpeed="max" from="-28675510#11" id="155570_420_0" speedFactor="1.0" to="28675510#7" type="pkw" />
	<trip depart="25201.00" departSpeed="max" from="22917421#3" id="114597_403_0" speedFactor="1.1" to="-186623965#14" type="pkw" />
	<trip depart="25204.00" departSpeed="max" from="-23283579#1" id="76230_386_0" speedFactor="1.1" to="297047309#0" type="pkw" />
	<trip depart="25205.00" departSpeed="max" from="22959552#0" id="156485_420_0" speedFactor="1.0" to="28675510#7" type="pkw" />
	<trip depart="25206.00" departSpeed="max" from="-23283579#1" id="110248_401_0" speedFactor="1.1" to="297047309#0" type="pkw" />
	<trip depart="25206.00" departSpeed="max" from="-28675510#11" id="134603_411_0" speedFactor="1.0" to="28675510#7" type="pkw" />
	<trip depart="25208.00" departSpeed="max" from="-28675510#11" id="166776_424_0" speedFactor="1.1" to="-186623965#14" type="pkw" />
	<trip depart="25209.00" departSpeed="max" from="-186623965#18" id="137959_412_0" speedFactor="1.0" to="-22917421#4" type="pkw" />
	<trip depart="25210.00" departSpeed="max" from="25166682#0" id="146152_416_0" speedFactor="1.0" to="28675510#7" type="pkw" />
	<trip depart="25210.00" departSpeed="max" from="-28675510#11" id="140143_414_0" speedFactor="0.8" to="28675510#7" type="pkw" />
	<trip depart="25211.00" departSpeed="max" from="-23283579#1" id="134167_411_0" speedFactor="1.0" to="-186623965#14" type="pkw" />
	<trip depart="25212.00" departSpeed="max" from="-28675510#11" id="163043_422_0" speedFactor="1.0" to="8716827#0" type="pkw" />
	<trip depart="25213.00" departSpeed="max" from="-23283579#1" id="160358_421_0" speedFactor="1.0" to="-186623965#14" type="pkw" />
	<trip depart="25214.00" departSpeed="max" from="-28675510#11" id="135663_411_0" speedFactor="1.0" to="28675510#7" type="pkw" />
	<trip depart="25217.00" departSpeed="max" from="-28675510#11" id="149045_417_0" speedFactor="1.1" to="28675510#7" type="pkw" />
	<trip depart="25218.00" departSpeed="max" from="-23283579#1" id="142890_415_0" speedFactor="1.0" to="23283579#1" type="pkw" />
	<trip depart="25220.00" departSpeed="max" from="22917421#3" id="158885_421_0" speedFactor="1.0" to="28675510#7" type="pkw" />
	<trip depart="25221.00" departSpeed="max" from="-28675510#11" id="146111_416_0" speedFactor="1.0" to="-186623965#14" type="pkw" />
	<trip depart="25221.00" departSpeed="max" from="186623965#9" id="140525_414_0" speedFactor="1.0" to="186623965#17" type="pkw" />
	<trip depart="25224.00" departSpeed="max" from="-28675510#11" id="117517_404_0" speedFactor="1.0" to="-186623965#14" type="pkw" />
	<trip depart="25226.00" departSpeed="max" from="186623965#9" id="119181_405_0" speedFactor="1.0" to="42925825#0" type="pkw" />
	<trip depart="25228.00" departSpeed="max" from="186623965#9" id="133416_410_0" speedFactor="1.0" to="42925825#0" type="pkw" />
	<trip depart="25228.00" departSpeed="max" from="-186623965#18" id="131237_409_0" speedFactor="0.8" to="297047309#0" type="pkw" />
	<trip depart="25229.00" departSpeed="max" from="22917421#3" id="138070_412_0" speedFactor="1.1" to="186623965#17" type="pkw" />
	<trip depart="25229.00" departSpeed="max" from="-28675510#11" id="152887_419_0" speedFactor="1.1" to="8716827#0" type="pkw" />
	<trip depart="25232.00" departSpeed="max" from="-186623965#18" id="141355_415_0" speedFactor="1.0" to="42925825#0" type="pkw" />
	<trip depart="25232.00" departSpeed="max" from="22917421#3" id="153496_420_0" speedFactor="1.1" to="186623965#17" type="pkw" />
	<trip depart="25232.00" departSpeed="max" from="-28675510#11" id="154212_420_0" speedFactor="1.0" to="-186623965#14" type="pkw" />
	<trip depart="25233.00" departSpeed="max" from="-42925825#2" id="161942_421_0" speedFactor="1.0" to="42925825#0" type="pkw" />
	<trip depart="25233.00" departSpeed="max" from="22959550#0" id="166162_424_0" speedFactor="1.0" to="28675510#7" type="pkw" />
	<trip depart="25234.00" departSpeed="max" from="22917421#3" id="155353_420_0" speedFactor="1.0" to="186623965#17" type="pkw" />
	<trip depart="25236.00" departSpeed="max" from="22917421#3" id="124742_406_0" speedFactor="1.1" to="28675493" type="pkw" />
	<trip depart="25236.00" departSpeed="max" from="-186623965#18" id="131071_409_0" speedFactor="1.0" to="42925825#0" type="pkw" />
	<trip depart="25237.00" departSpeed="max" from="-28675510#11" id="134428_411_0" speedFactor="1.1" to="28675510#7" type="pkw" />
	<trip depart="25239.00" departSpeed="max" from="-186623965#18" id="126900_407_0" speedFactor="1.0" to="42925825#0" type="pkw" />
	<trip depart="25240.00" departSpeed="max" from="-28675510#11" id="164302_422_0" speedFactor="1.1" to="-186623965#14" type="pkw" />
	<trip depart="25240.00" departSpeed="max" from="28675510#1" id="158136_421_0" speedFactor="1.0" to="323416262" type="pkw" />
	<trip depart="25241.00" departSpeed="max" from="-186623965#18" id="126698_407_0" speedFactor="1.0" to="42925825#0" type="pkw" />
	<trip depart="25244.00" departSpeed="max" from="22917421#3" id="122140_406_0" speedFactor="1.0" to="23648008#2" type="pkw" />
	<trip depart="25246.00" departSpeed="max" from="-28675510#11" id="163025_422_0" speedFactor="1.1" to="8716807#1" type="pkw" />
	<trip depart="25247.00" departSpeed="max" from="22917421#3" id="118788_405_0" speedFactor="1.1" to="186623965#17" type="pkw" />
	<trip depart="25248.00" departSpeed="max" from="-186623965#18" id="131243_409_0" speedFactor="1.1" to="-186623965#14" type="pkw" />
	<trip depart="25248.00" departSpeed="max" from="-186623965#18" id="161216_421_0" speedFactor="1.0" to="42925825#0" type="pkw" />
	<trip depart="25249.00" departSpeed="max" from="186623965#9" id="113370_402_0" speedFactor="1.0" to="42925825#0" type="pkw" />
	<trip depart="25251.00" departSpeed="max" from="-186623965#18" id="159622_421_0" speedFactor="1.0" to="42925825#0" type="pkw" />
	<trip depart="25255.00" departSpeed="max" from="-186623965#18" id="163799_422_0" speedFactor="1.1" to="-22917421#4" type="pkw" />
	<trip depart="25255.00" departSpeed="max" from="-23283579#1" id="129175_408_0" speedFactor="1.0" to="323450710#0" type="pkw" />
	<trip depart="25256.00" departSpeed="max" from="23283580#0" id="173747_427_0" speedFactor="1.1" to="28675510#7" type="pkw" />
	<trip depart="25256.00" departSpeed="max" from="22917421#3" id="144617_416_0" speedFactor="1.0" to="186623965#17" type="pkw" />
	<trip depart="25257.00" departSpeed="max" from="-23283579#1" id="127809_407_0" speedFactor="1.0" to="23285888#0" type="pkw" />
	<trip depart="25259.00" departSpeed="max" from="186623965#9" id="145282_416_0" speedFactor="1.0" to="42925825#0" type="pkw" />
	<trip depart="25261.00" departSpeed="max" from="-23283579#1" id="84611_390_0" speedFactor="1.0" to="-23648008#0" type="pkw" />
	<trip depart="25264.00" departSpeed="max" from="-297047309#0" id="138793_413_0" speedFactor="1.0" to="28675510#7" type="pkw" />
	<trip depart="25264.00" departSpeed="max" from="8716807#1" id="162890_422_0" speedFactor="1.1" to="28675510#7" type="pkw" />
	<trip depart="25267.00" departSpeed="max" from="-353069169#0" id="111571_401_0" speedFactor="1.0" to="24487264" type="pkw" />
	<trip depart="25268.00" departSpeed="max" from="-23283579#1" id="121484_406_0" speedFactor="1.0" to="133081987#3" type="pkw" />
	<trip depart="25270.00" departSpeed="max" from="-23283579#1" id="91556_392_0" speedFactor="1.0" to="23840972" type="pkw" />
	<trip depart="25272.00" departSpeed="max" from="-186623965#18" id="147744_416_0" speedFactor="1.0" to="42925825#0" type="pkw" />
	<trip depart="25273.00" departSpeed="max" from="-23283579#1" id="105090_398_0" speedFactor="1.0" to="-186623965#14" type="pkw" />
	<trip depart="25273.00" departSpeed="max" from="22917421#3" id="162497_421_0" speedFactor="1.0" to="186623965#17" type="pkw" />
	<trip depart="25274.00" departSpeed="max" from="-28675510#11" id="142950_415_0" speedFactor="1.0" to="155723703#0" type="pkw" />
	<trip depart="25283.00" departSpeed="max" from="-28675510#11" id="107217_400_0" speedFactor="1.0" to="-186623965#14" type="pkw" />
	<trip depart="25287.00" departSpeed="max" from="22959550#3" id="174787_427_0" speedFactor="1.0" to="28675510#7" type="pkw" />
	<trip depart="25297.00" departSpeed="max" from="22959552#0" id="150593_418_0" speedFactor="1.0" to="22959552#0" type="pkw" />
	<trip depart="25299.00" departSpeed="max" from="-297047307" id="152801_419_0" speedFactor="1.1" to="297047309#0" type="pkw" />
	<trip depart="25303.00" departSpeed="max" from="23283470#0" id="157572_421_0" speedFactor="1.0" to="323416262" type="pkw" />
	<trip depart="25307.00" departSpeed="max" from="-23283579#1" id="139269_413_0" speedFactor="1.0" to="-297047308" type="pkw" />
	<trip depart="25308.00" departSpeed="max" from="22917421#3" id="145512_416_0" speedFactor="1.0" to="186623965#17" type="pkw" />
	<trip depart="25310.00" departSpeed="max" from="22917421#3" id="149422_417_0" speedFactor="1.0" to="-23840935" type="pkw" />
	<trip depart="25313.00" departSpeed="max" from="22917421#3" id="140363_414_0" speedFactor="1.0" to="-186623965#14" type="pkw" />
	<trip depart="25313.00" departSpeed="max" from="-28675510#0" id="146391_416_0" speedFactor="1.0" to="28675510#7" type="pkw" />
	<trip depart="25314.00" departSpeed="max" from="-23283579#1" id="171749_426_0" speedFactor="1.0" to="-297047309#0" type="pkw" />
	<trip depart="25314.00" departSpeed="max" from="186623965#9" id="138639_413_0" speedFactor="1.0" to="186623965#17" type="pkw" />
	<trip depart="25320.00" departSpeed="max" from="-186623965#18" id="148207_417_0" speedFactor="1.0" to="42925825#0" type="pkw" />
	<trip depart="25321.00" departSpeed="max" from="-28675510#11" id="146387_416_0" speedFactor="1.0" to="-186623965#14" type="pkw" />
	<trip depart="25324.00" departSpeed="max" from="-186623965#18" id="175709_428_0" speedFactor="1.1" to="-186623965#14" type="pkw" />
	<trip depart="25326.00" departSpeed="max" from="133081987#0" id="171184_426_0" speedFactor="1.0" to="23283436" type="pkw" />
	<trip depart="25328.00" departSpeed="max" from="23840713#2" id="175131_428_0" speedFactor="1.0" to="42925825#0" type="pkw" />
	<trip depart="25329.00" departSpeed="max" from="22917421#3" id="150411_418_0" speedFactor="0.8" to="23840972" type="pkw" />
	<trip depart="25330.00" departSpeed="max" from="-186623965#18" id="137686_412_0" speedFactor="1.1" to="42925825#0" type="pkw" />
	<trip depart="25331.00" departSpeed="max" from="-186623965#16" id="148039_417_0" speedFactor="1.0" to="186623965#17" type="pkw" />
	<trip depart="25338.00" departSpeed="max" from="8716807#1" id="149205_417_0" speedFactor="1.0" to="323416262" type="pkw" />
	<trip depart="25339.00" departSpeed="max" from="-23283579#1" id="109527_401_0" speedFactor="1.1" to="297047309#0" type="pkw" />
	<trip depart="25343.00" departSpeed="max" from="-23283579#1" id="120970_405_0" speedFactor="1.1" to="23283470#5" type="pkw" />
	<trip depart="25343.00" departSpeed="max" from="23285888#0" id="164277_422_0" speedFactor="1.0" to="297047309#0" type="pkw" />
	<trip depart="25348.00" departSpeed="max" from="-353069169#0" id="144017_416_0" speedFactor="1.0" to="323416262" type="pkw" />
	<trip depart="25349.00" departSpeed="max" from="22917421#3" id="166783_424_0" speedFactor="1.0" to="186623965#17" type="pkw" />
	<trip depart="25356.00" departSpeed="max" from="-186623965#18" id="108769_400_0" speedFactor="1.0" to="-22917421#4" type="pkw" />
	<trip depart="25363.00" departSpeed="max" from="133081987#3" id="148419_417_0" speedFactor="1.1" to="297047309#0" type="pkw" />
	<trip depart="25369.00" departSpeed="max" from="23840712#0" id="146495_416_0" speedFactor="1.1" to="-186623965#14" type="pkw" />
	<trip depart="25369.00" departSpeed="max" from="-186623965#18" id="96268_394_0" speedFactor="1.1" to="-22917421#4" type="pkw" />
	<trip depart="25371.00" departSpeed="max" from="-23283579#1" id="138031_412_0" speedFactor="1.0" to="-23840935" type="pkw" />
	<trip depart="25373.00" departSpeed="max" from="22917421#3" id="174717_427_0" speedFactor="1.0" to="186623965#17" type="pkw" />
	<trip depart="25375.00" departSpeed="max" from="-23283579#1" id="158300_421_0" speedFactor="1.1" to="-23648008#0" type="pkw" />
	<trip depart="25375.00" departSpeed="max" from="22917421#3" id="142307_415_0" speedFactor="1.0" to="186623965#17" type="pkw" />
	<trip depart="25382.00" departSpeed="max" from="-25166682#0" id="167565_425_0" speedFactor="1.1" to="23283579#1" type="pkw" />
	<trip depart="25383.00" departSpeed="max" from="186623965#9" id="139530_413_0" speedFactor="1.0" to="42925825#0" type="pkw" />
	<trip depart="25383.00" departSpeed="max" from="23283470#0" id="179907_430_0" speedFactor="1.1" to="23283579#1" type="pkw" />
	<trip depart="25385.00" departSpeed="max" from="-297047309#0" id="149274_417_0" speedFactor="1.0" to="-23840888#0" type="pkw" />
	<trip depart="25386.00" departSpeed="max" from="186623965#9" id="109384_401_0" speedFactor="1.0" to="323450710#0" type="pkw" />
	<trip depart="25387.00" departSpeed="max" from="-297047309#0" id="139438_413_0" speedFactor="1.0" to="28675510#7" type="pkw" />
	<trip depart="25388.00" departSpeed="max" from="22917421#3" id="157954_421_0" speedFactor="0.8" to="186623965#17" type="pkw" />
	<trip depart="25389.00" departSpeed="max" from="-28675510#11" id="139869_414_0" speedFactor="1.0" to="186623965#17" type="pkw" />
	<trip depart="25403.00" departSpeed="max" from="-23283579#1" id="153335_420_0" speedFactor="1.0" to="297047309#0" type="pkw" />
	<trip depart="25405.00" departSpeed="max" from="-186623965#18" id="164388_422_0" speedFactor="1.0" to="-22917421#4" type="pkw" />
	<trip depart="25405.00" departSpeed="max" from="290365598#0" id="169793_426_0" speedFactor="1.1" to="-186623965#14" type="pkw" />
	<trip depart="25405.00" departSpeed="max" from="-28675510#0" id="145712_416_0" speedFactor="1.0" to="28675510#7" type="pkw" />
	<trip depart="25406.00" departSpeed="max" from="-23283579#1" id="146699_416_0" speedFactor="0.8" to="297047309#0" type="pkw" />
	<trip depart="25408.00" departSpeed="max" from="-4936412" id="83049_390_0" speedFactor="1.0" to="8716827#0" type="pkw" />
	<trip depart="25411.00" departSpeed="max" from="22917421#3" id="154420_420_0" speedFactor="1.0" to="186623965#17" type="pkw" />
	<trip depart="25412.00" departSpeed="max" from="-4936412" id="67978_381_0" speedFactor="0.9000000000000001" to="8716827#0" type="pkw" />
	<trip depart="25414.00" departSpeed="max" from="-186623965#18" id="177639_429_0" speedFactor="1.0" to="23283473" type="pkw" />
	<trip depart="25414.00" departSpeed="max" from="-23840712#0" id="149528_417_0" speedFactor="1.0" to="28675510#7" type="pkw" />
	<trip depart="25415.00" departSpeed="max" from="-186623965#18" id="118988_405_0" speedFactor="1.0" to="-22917421#4" type="pkw" />
	<trip depart="25415.00" departSpeed="max" from="23283470#0" id="171631_426_0" speedFactor="1.0" to="23283579#1" type="pkw" />
	<trip depart="25419.00" departSpeed="max" from="-23840712#0" id="161682_421_0" speedFactor="1.1" to="28675510#7" type="pkw" />
	<trip depart="25419.00" departSpeed="max" from="25166682#0" id="154646_420_0" speedFactor="1.0" to="323450710#0" type="pkw" />
	<trip depart="25422.00" departSpeed="max" from="-28675493" id="168963_425_0" speedFactor="1.1" to="23283579#1" type="pkw" />
	<trip depart="25427.00" departSpeed="max" from="-186623965#18" id="165190_423_0" speedFactor="1.0" to="-23840935" type="pkw" />
	<trip depart="25441.00" departSpeed="max" from="-4936412" id="122677_406_0" speedFactor="1.0" to="8716827#0" type="pkw" />
	<trip depart="25444.00" departSpeed="max" from="22917421#3" id="150535_418_0" speedFactor="1.0" to="186623965#17" type="pkw" />
	<trip depart="25449.00" departSpeed="max" from="42925825#0" id="166238_424_0" speedFactor="1.0" to="42925825#0" type="pkw" />
	<trip depart="25456.00" departSpeed="max" from="23647126" id="171497_426_0" speedFactor="1.0" to="23283579#1" type="pkw" />
	<trip depart="25456.00" departSpeed="max" from="-4936412" id="139487_413_0" speedFactor="1.0" to="8716827#0" type="pkw" />
	<trip depart="25457.00" departSpeed="max" from="186623965#9" id="148577_417_0" speedFactor="1.0" to="42925825#0" type="pkw" />
	<trip depart="25458.00" departSpeed="max" from="-186623965#18" id="118123_405_0" speedFactor="1.1" to="-23840935" type="pkw" />
	<trip depart="25459.00" departSpeed="max" from="-297047309#0" id="131441_410_0" speedFactor="1.0" to="23283579#1" type="pkw" />
	<trip depart="25464.00" departSpeed="max" from="22917421#3" id="151819_419_0" speedFactor="1.0" to="186623965#17" type="pkw" />
	<trip depart="25466.00" departSpeed="max" from="-186623965#18" id="137017_412_0" speedFactor="1.0" to="-22917421#4" type="pkw" />
	<trip depart="25466.00" departSpeed="max" from="22959550#3" id="154649_420_0" speedFactor="1.0" to="42925825#0" type="pkw" />
	<trip depart="25467.00" departSpeed="max" from="-297047309#0" id="166158_424_0" speedFactor="0.8" to="23283579#1" type="pkw" />
	<trip depart="25467.00" departSpeed="max" from="-186623965#18" id="131919_410_0" speedFactor="1.0" to="297047309#0" type="pkw" />
	<trip depart="25468.00" departSpeed="max" from="186623965#9" id="105921_399_0" speedFactor="1.0" to="42925825#0" type="pkw" />
	<trip depart="25471.00" departSpeed="max" from="186623965#9" id="110653_401_0" speedFactor="1.0" to="42925825#0" type="pkw" />
	<trip depart="25472.00" departSpeed="max" from="297047308" id="156503_420_0" speedFactor="1.1" to="297047309#0" type="pkw" />
	<trip depart="25475.00" departSpeed="max" from="-4936412" id="136088_411_0" speedFactor="1.0" to="8716827#0" type="pkw" />
	<trip depart="25477.00" departSpeed="max" from="22917421#3" id="173519_427_0" speedFactor="1.0" to="186623965#17" type="pkw" />
	<trip depart="25479.00" departSpeed="max" from="23283579#1" id="148727_417_0" speedFactor="1.0" to="23283579#1" type="pkw" />
	<trip depart="25481.00" departSpeed="max" from="186623965#9" id="143994_416_0" speedFactor="1.1" to="42925825#0" type="pkw" />
	<trip depart="25484.00" departSpeed="max" from="-23283579#1" id="161175_421_0" speedFactor="1.0" to="-186623965#14" type="pkw" />
	<trip depart="25488.00" departSpeed="max" from="-4936412" id="115107_403_0" speedFactor="1.0" to="8716827#0" type="pkw" />
	<trip depart="25490.00" departSpeed="max" from="-4936412" id="110175_401_0" speedFactor="1.0" to="155723703#0" type="pkw" />
	<trip depart="25496.00" departSpeed="max" from="-4936412" id="82749_390_0" speedFactor="1.1" to="155723703#0" type="pkw" />
	<trip depart="25497.00" departSpeed="max" from="23647118" id="177623_429_0" speedFactor="0.8" to="297047309#0" type="pkw" />
	<trip depart="25498.00" departSpeed="max" from="-186623965#18" id="119370_405_0" speedFactor="1.0" to="-28675493" type="pkw" />
	<trip depart="25500.00" departSpeed="max" from="-4936412" id="104777_398_0" speedFactor="1.0" to="8716827#0" type="pkw" />
	<trip depart="25501.00" departSpeed="max" from="28675510#1" id="162709_422_0" speedFactor="1.0" to="42925825#0" type="pkw" />
	<trip depart="25504.00" departSpeed="max" from="186623965#9" id="157758_421_0" speedFactor="1.1" to="42925825#0" type="pkw" />
	<trip depart="25514.00" departSpeed="max" from="-42925825#2" id="173176_427_0" speedFactor="1.0" to="60909001" type="pkw" />
	<trip depart="25516.00" departSpeed="max" from="23840713#2" id="183261_431_0" speedFactor="1.0" to="42925825#0" type="pkw" />
	<trip depart="25517.00" departSpeed="max" from="-186623965#18" id="148572_417_0" speedFactor="1.0" to="323450710#0" type="pkw" />
	<trip depart="25518.00" departSpeed="max" from="-42925825#2" id="175527_428_0" speedFactor="1.0" to="-297047310#2" type="pkw" />
	<trip depart="25521.00" departSpeed="max" from="-23283472#2" id="155960_420_0" speedFactor="1.0" to="23283436" type="pkw" />
	<trip depart="25523.00" departSpeed="max" from="-23283579#1" id="133805_411_0" speedFactor="1.1" to="23840972" type="pkw" />
	<trip depart="25525.00" departSpeed="max" from="-23283579#1" id="148797_417_0" speedFactor="1.0" to="42925825#0" type="pkw" />
	<trip depart="25527.00" departSpeed="max" from="-23283579#1" id="176921_429_0" speedFactor="1.0" to="28675510#7" type="pkw" />
	<trip depart="25527.00" departSpeed="max" from="-25166682#0" id="150719_418_0" speedFactor="1.1" to="28675510#7" type="pkw" />
	<trip depart="25529.00" departSpeed="max" from="-23283579#1" id="163211_422_0" speedFactor="1.0" to="-186623965#14" type="pkw" />
	<trip depart="25533.00" departSpeed="max" from="22917421#3" id="172172_426_0" speedFactor="0.8" to="42925825#0" type="pkw" />
	<trip depart="25540.00" departSpeed="max" from="-23283579#1" id="163292_422_0" speedFactor="1.0" to="42925825#0" type="pkw" />
	<trip depart="25540.00" departSpeed="max" from="23283580#0" id="160003_421_0" speedFactor="1.0" to="23286179#2" type="pkw" />
	<trip depart="25543.00" departSpeed="max" from="-23283579#1" id="164927_423_0" speedFactor="1.0" to="297047309#0" type="pkw" />
	<trip depart="25543.00" departSpeed="max" from="-23840712#0" id="164812_422_0" speedFactor="0.8" to="297047309#0" type="pkw" />
	<trip depart="25544.00" departSpeed="max" from="23840712#1" id="161177_421_0" speedFactor="1.1" to="297047309#0" type="pkw" />
	<trip depart="25546.00" departSpeed="max" from="-186623965#18" id="150368_418_0" speedFactor="1.1" to="-290365598#1" type="pkw" />
	<trip depart="25547.00" departSpeed="max" from="186623965#9" id="165987_424_0" speedFactor="0.8" to="42925825#0" type="pkw" />
	<trip depart="25548.00" departSpeed="max" from="-23283579#1" id="142315_415_0" speedFactor="1.0" to="297047309#0" type="pkw" />
	<trip depart="25550.00" departSpeed="max" from="-23283579#1" id="121828_406_0" speedFactor="1.0" to="23648008#2" type="pkw" />
	<trip depart="25552.00" departSpeed="max" from="22959550#3" id="154381_420_0" speedFactor="1.1" to="28675510#7" type="pkw" />
	<trip depart="25552.00" departSpeed="max" from="-23283579#1" id="81429_389_0" speedFactor="1.0" to="23647126" type="pkw" />
	<trip depart="25554.00" departSpeed="max" from="-23283579#1" id="161283_421_0" speedFactor="1.0" to="-186623965#14" type="pkw" />
	<trip depart="25554.00" departSpeed="max" from="28675510#1" id="188348_433_0" speedFactor="1.0" to="42925825#0" type="pkw" />
	<trip depart="25555.00" departSpeed="max" from="23283580#0" id="179877_430_0" speedFactor="1.1" to="23286179#2" type="pkw" />
	<trip depart="25556.00" departSpeed="max" from="22917421#3" id="173080_427_0" speedFactor="1.0" to="186623965#17" type="pkw" />
	<trip depart="25558.00" departSpeed="max" from="-23283579#1" id="140513_414_0" speedFactor="1.1" to="297047309#0" type="pkw" />
	<trip depart="25558.00" departSpeed="max" from="23283580#0" id="154500_420_0" speedFactor="1.0" to="23286179#2" type="pkw" />
	<trip depart="25558.00" departSpeed="max" from="23286179#2" id="161086_421_0" speedFactor="1.0" to="42925825#0" type="pkw" />
	<trip depart="25559.00" departSpeed="max" from="-42925825#2" id="126208_407_0" speedFactor="1.1" to="297047309#0" type="pkw" />
	<trip depart="25559.00" departSpeed="max" from="186623965#9" id="147697_416_0" speedFactor="1.0" to="42925825#0" type="pkw" />
	<trip depart="25563.00" departSpeed="max" from="-23283579#1" id="126688_407_0" speedFactor="1.0" to="-23840972" type="pkw" />
	<trip depart="25563.00" departSpeed="max" from="-28675510#11" id="113945_402_0" speedFactor="1.0" to="297047310#4" type="pkw" />
	<trip depart="25566.00" departSpeed="max" from="-186623965#18" id="116644_404_0" speedFactor="1.0" to="297047309#0" type="pkw" />
	<trip depart="25567.00" departSpeed="max" from="28675510#1" id="186152_432_0" speedFactor="1.0" to="28675510#7" type="pkw" />
	<trip depart="25568.00" departSpeed="max" from="22959550#0" id="168666_425_0" speedFactor="1.0" to="28675510#7" type="pkw" />
	<trip depart="25571.00" departSpeed="max" from="23283580#0" id="171283_426_0" speedFactor="1.0" to="28675510#7" type="pkw" />
	<trip depart="25573.00" departSpeed="max" from="186623965#17" id="176781_429_0" speedFactor="1.0" to="42925825#0" type="pkw" />
	<trip depart="25573.00" departSpeed="max" from="23840713#2" id="186808_432_0" speedFactor="1.0" to="28675510#7" type="pkw" />
	<trip depart="25574.00" departSpeed="max" from="-28675510#11" id="148143_417_0" speedFactor="1.0" to="8716827#0" type="pkw" />
	<trip depart="25575.00" departSpeed="max" from="23283474" id="183189_431_0" speedFactor="1.0" to="22959552#0" type="pkw" />
	<trip depart="25575.00" departSpeed="max" from="-4936412" id="160078_421_0" speedFactor="1.0" to="8716827#0" type="pkw" />
	<trip depart="25576.00" departSpeed="max" from="-28675510#11" id="129126_408_0" speedFactor="1.0" to="-186623965#14" type="pkw" />
	<trip depart="25577.00" departSpeed="max" from="-186623965#18" id="127322_407_0" speedFactor="0.8" to="-28675510#5" type="pkw" />
	<trip depart="25580.00" departSpeed="max" from="132042183" id="119014_405_0" speedFactor="1.0" to="-23283472#2" type="pkw" />
	<trip depart="25581.00" departSpeed="max" from="-4936412" id="163913_422_0" speedFactor="1.0" to="8716827#0" type="pkw" />
	<trip depart="25584.00" departSpeed="max" from="23283579#1" id="156093_420_0" speedFactor="1.0" to="23283579#1" type="pkw" />
	<trip depart="25585.00" departSpeed="max" from="-186623965#18" id="98770_395_0" speedFactor="1.0" to="23840935" type="pkw" />
	<trip depart="25589.00" departSpeed="max" from="186623965#9" id="161788_421_0" speedFactor="1.0" to="-186623965#14" type="pkw" />
	<trip depart="25592.00" departSpeed="max" from="160807420" id="133534_410_0" speedFactor="1.1" to="8716827#0" type="pkw" />
	<trip depart="25592.00" departSpeed="max" from="-4936412" id="102131_396_0" speedFactor="1.1" to="8716827#0" type="pkw" />
	<trip depart="25593.00" departSpeed="max" from="-297047309#0" id="145098_416_0" speedFactor="1.0" to="28675510#7" type="pkw" />
	<trip depart="25594.00" departSpeed="max" from="186623965#9" id="151627_419_0" speedFactor="1.0" to="186623965#17" type="pkw" />
	<trip depart="25595.00" departSpeed="max" from="-186623965#18" id="143015_415_0" speedFactor="1.0" to="323450710#0" type="pkw" />
	<trip depart="25596.00" departSpeed="max" from="186623965#9" id="147083_416_0" speedFactor="1.0" to="-22917421#4" type="pkw" />
	<trip depart="25597.00" departSpeed="max" from="-186623965#18" id="117318_404_0" speedFactor="1.0" to="323450710#0" type="pkw" />
	<trip depart="25600.00" departSpeed="max" from="-23283579#1" id="151894_419_0" speedFactor="1.1" to="25166682#0" type="pkw" />
	<trip depart="25603.00" departSpeed="max" from="-23283579#1" id="107138_400_0" speedFactor="1.0" to="297047309#0" type="pkw" />
	<trip depart="25605.00" departSpeed="max" from="290365598#0" id="173908_427_0" speedFactor="1.0" to="28675510#7" type="pkw" />
	<trip depart="25607.00" departSpeed="max" from="-186623965#18" id="144870_416_0" speedFactor="1.0" to="42925825#0" type="pkw" />
	<trip depart="25608.00" departSpeed="max" from="-23283579#1" id="148075_417_0" speedFactor="1.0" to="-24610382" type="pkw" />
	<trip depart="25610.00" departSpeed="max" from="-23283579#1" id="125134_406_0" speedFactor="1.0" to="297047309#0" type="pkw" />
	<trip depart="25612.00" departSpeed="max" from="-23283579#1" id="120462_405_0" speedFactor="1.1" to="297047309#0" type="pkw" />
	<trip depart="25612.00" departSpeed="max" from="186623965#17" id="173839_427_0" speedFactor="1.0" to="186623965#17" type="pkw" />
	<trip depart="25612.00" departSpeed="max" from="22959552#1" id="169806_426_0" speedFactor="1.0" to="186623965#17" type="pkw" />
	<trip depart="25614.00" departSpeed="max" from="160807420" id="154166_420_0" speedFactor="1.0" to="23283436" type="pkw" />
	<trip depart="25615.00" departSpeed="max" from="-23283579#1" id="91778_392_0" speedFactor="1.0" to="25166682#0" type="pkw" />
	<trip depart="25615.00" departSpeed="max" from="22959550#0" id="182995_431_0" speedFactor="1.1" to="297047309#0" type="pkw" />
	<trip depart="25617.00" departSpeed="max" from="-186623965#18" id="125779_406_0" speedFactor="1.0" to="-186623965#14" type="pkw" />
	<trip depart="25617.00" departSpeed="max" from="-23283579#1" id="150248_418_0" speedFactor="1.1" to="297047309#0" type="pkw" />
	<trip depart="25619.00" departSpeed="max" from="-23283579#1" id="144670_416_0" speedFactor="1.0" to="297047309#0" type="pkw" />
	<trip depart="25621.00" departSpeed="max" from="-23283579#1" id="113179_402_0" speedFactor="1.0" to="297047309#0" type="pkw" />
	<trip depart="25624.00" departSpeed="max" from="-23283579#1" id="131459_410_0" speedFactor="1.0" to="-23283580#1" type="pkw" />
	<trip depart="25624.00" departSpeed="max" from="-4936412" id="182476_431_0" speedFactor="1.0" to="8716827#0" type="pkw" />
	<trip depart="25630.00" departSpeed="max" from="-4936412" id="73425_385_0" speedFactor="0.8" to="22959552#0" type="pkw" />
	<trip depart="25632.00" departSpeed="max" from="-186623965#18" id="156917_421_0" speedFactor="1.0" to="42925825#0" type="pkw" />
	<trip depart="25635.00" departSpeed="max" from="22917421#3" id="137365_412_0" speedFactor="0.8" to="186623965#17" type="pkw" />
	<trip depart="25637.00" departSpeed="max" from="-23283579#1" id="127515_407_0" speedFactor="1.1" to="-297047310#2" type="pkw" />
	<trip depart="25638.00" departSpeed="max" from="22917421#3" id="110782_401_0" speedFactor="1.0" to="186623965#17" type="pkw" />
	<trip depart="25640.00" departSpeed="max" from="-186623965#18" id="165874_424_0" speedFactor="1.1" to="323450710#0" type="pkw" />
	<trip depart="25640.00" departSpeed="max" from="-186623965#18" id="145872_416_0" speedFactor="1.0" to="42925825#0" type="pkw" />
	<trip depart="25641.00" departSpeed="max" from="-4936412" id="97682_395_0" speedFactor="1.1" to="8716827#0" type="pkw" />