<routes>
  <vType accel="5" decel="10" id="type1" length="5" />
  <flow begin="0" departPos="random_free" departSpeed="max" end="300" from="np12_nt24" id="f_0_0" speedFactor="1.0" to="nt2_np2" type="type1" vehsPerHour="33" />
  <flow begin="0" departPos="random_free" departSpeed="max" end="300" from="np13_nt23" id="f_0_1" speedFactor="1.0" to="nt3_np3" type="type1" vehsPerHour="80" />
  <flow begin="0" departPos="random_free" departSpeed="max" end="300" from="np14_nt22" id="f_0_2" speedFactor="1.0" to="nt4_np4" type="type1" vehsPerHour="20" />
  <flow begin="0" departPos="random_free" departSpeed="max" end="300" from="np16_nt21" id="f_0_3" speedFactor="1.0" to="nt5_np6" type="type1" vehsPerHour="27" />
  <flow begin="0" departPos="random_free" departSpeed="max" end="300" from="np18_nt11" id="f_0_4" speedFactor="1.0" to="nt15_np8" type="type1" vehsPerHour="187" />
  <flow begin="0" departPos="random_free" departSpeed="max" end="300" from="np20_nt1" id="f_0_5" speedFactor="1.0" to="nt25_np10" type="type1" vehsPerHour="27" />
  <flow begin="0" departPos="random_free" departSpeed="max" end="300" from="np2_nt2" id="f_0_6" speedFactor="1.1" to="nt22_np14" type="type1" vehsPerHour="20" />
  <flow begin="0" departPos="random_free" departSpeed="max" end="300" from="np3_nt3" id="f_0_7" speedFactor="1.0" to="nt23_np13" type="type1" vehsPerHour="20" />
  <flow begin="0" departPos="random_free" departSpeed="max" end="300" from="np4_nt4" id="f_0_8" speedFactor="1.0" to="nt24_np12" type="type1" vehsPerHour="20" />
  <flow begin="0" departPos="random_free" departSpeed="max" end="300" from="np6_nt5" id="f_0_9" speedFactor="1.0" to="nt1_np20" type="type1" vehsPerHour="20" />
  <flow begin="0" departPos="random_free" departSpeed="max" end="300" from="np8_nt15" id="f_0_10" speedFactor="1.0" to="nt11_np18" type="type1" vehsPerHour="20" />
  <flow begin="0" departPos="random_free" departSpeed="max" end="300" from="np10_nt25" id="f_0_11" speedFactor="1.0" to="nt21_np16" type="type1" vehsPerHour="20" />
  <flow begin="300" departPos="random_free" departSpeed="max" end="600" from="np12_nt24" id="f_1_0" speedFactor="1.0" to="nt2_np2" type="type1" vehsPerHour="157" />
  <flow begin="300" departPos="random_free" departSpeed="max" end="600" from="np13_nt23" id="f_1_1" speedFactor="1.1" to="nt3_np3" type="type1" vehsPerHour="257" />
  <flow begin="300" departPos="random_free" departSpeed="max" end="600" from="np14_nt22" id="f_1_2" speedFactor="1.0" to="nt4_np4" type="type1" vehsPerHour="127" />
  <flow begin="300" departPos="random_free" departSpeed="max" end="600" from="np16_nt21" id="f_1_3" speedFactor="1.0" to="nt5_np6" type="type1" vehsPerHour="155" />
  <flow begin="300" departPos="random_free" departSpeed="max" end="600" from="np18_nt11" id="f_1_4" speedFactor="1.1" to="nt15_np8" type="type1" vehsPerHour="403" />
  <flow begin="300" departPos="random_free" departSpeed="max" end="600" from="np20_nt1" id="f_1_5" speedFactor="1.0" to="nt25_np10" type="type1" vehsPerHour="160" />
  <flow begin="300" departPos="random_free" departSpeed="max" end="600" from="np2_nt2" id="f_1_6" speedFactor="1.0" to="nt22_np14" type="type1" vehsPerHour="20" />
  <flow begin="300" departPos="random_free" departSpeed="max" end="600" from="np3_nt3" id="f_1_7" speedFactor="1.0" to="nt23_np13" type="type1" vehsPerHour="20" />
  <flow begin="300" departPos="random_free" departSpeed="max" end="600" from="np4_nt4" id="f_1_8" speedFactor="1.0" to="nt24_np12" type="type1" vehsPerHour="20" />
  <flow begin="300" departPos="random_free" departSpeed="max" end="600" from="np6_nt5" id="f_1_9" speedFactor="1.0" to="nt1_np20" type="type1" vehsPerHour="20" />
  <flow begin="300" departPos="random_free" departSpeed="max" end="600" from="np8_nt15" id="f_1_10" speedFactor="1.0" to="nt11_np18" type="type1" vehsPerHour="20" />
  <flow begin="300" departPos="random_free" departSpeed="max" end="600" from="np10_nt25" id="f_1_11" speedFactor="1.0" to="nt21_np16" type="type1" vehsPerHour="20" />
  <flow begin="600" departPos="random_free" departSpeed="max" end="900" from="np12_nt24" id="f_2_0" speedFactor="1.1" to="nt2_np2" type="type1" vehsPerHour="443" />
  <flow begin="600" departPos="random_free" departSpeed="max" end="900" from="np13_nt23" id="f_2_1" speedFactor="1.1" to="nt3_np3" type="type1" vehsPerHour="572" />
  <flow begin="600" departPos="random_free" departSpeed="max" end="900" from="np14_nt22" id="f_2_2" speedFactor="1.0" to="nt4_np4" type="type1" vehsPerHour="506" />
  <flow begin="600" departPos="random_free" departSpeed="max" end="900" from="np16_nt21" id="f_2_3" speedFactor="1.0" to="nt5_np6" type="type1" vehsPerHour="453" />
  <flow begin="600" departPos="random_free" departSpeed="max" end="900" from="np18_nt11" id="f_2_4" speedFactor="1.1" to="nt15_np8" type="type1" vehsPerHour="600" />
  <flow begin="600" departPos="random_free" departSpeed="max" end="900" from="np20_nt1" id="f_2_5" speedFactor="1.0" to="nt25_np10" type="type1" vehsPerHour="508" />
  <flow begin="600" departPos="random_free" departSpeed="max" end="900" from="np2_nt2" id="f_2_6" speedFactor="0.9000000000000001" to="nt22_np14" type="type1" vehsPerHour="20" />
  <flow begin="600" departPos="random_free" departSpeed="max" end="900" from="np3_nt3" id="f_2_7" speedFactor="1.1" to="nt23_np13" type="type1" vehsPerHour="20" />
  <flow begin="600" departPos="random_free" departSpeed="max" end="900" from="np4_nt4" id="f_2_8" speedFactor="1.0" to="nt24_np12" type="type1" vehsPerHour="20" />
  <flow begin="600" departPos="random_free" departSpeed="max" end="900" from="np6_nt5" id="f_2_9" speedFactor="1.0" to="nt1_np20" type="type1" vehsPerHour="20" />
  <flow begin="600" departPos="random_free" departSpeed="max" end="900" from="np8_nt15" id="f_2_10" speedFactor="1.0" to="nt11_np18" type="type1" vehsPerHour="20" />
  <flow begin="600" departPos="random_free" departSpeed="max" end="900" from="np10_nt25" id="f_2_11" speedFactor="1.0" to="nt21_np16" type="type1" vehsPerHour="20" />
  <flow begin="900" departPos="random_free" departSpeed="max" end="1200" from="np12_nt24" id="f_3_0" speedFactor="1.0" to="nt2_np2" type="type1" vehsPerHour="743" />
  <flow begin="900" departPos="random_free" departSpeed="max" end="1200" from="np13_nt23" id="f_3_1" speedFactor="1.1" to="nt3_np3" type="type1" vehsPerHour="881" />
  <flow begin="900" departPos="random_free" departSpeed="max" end="1200" from="np14_nt22" id="f_3_2" speedFactor="1.0" to="nt4_np4" type="type1" vehsPerHour="839" />
  <flow begin="900" departPos="random_free" departSpeed="max" end="1200" from="np16_nt21" id="f_3_3" speedFactor="1.0" to="nt5_np6" type="type1" vehsPerHour="684" />
  <flow begin="900" departPos="random_free" departSpeed="max" end="1200" from="np18_nt11" id="f_3_4" speedFactor="1.0" to="nt15_np8" type="type1" vehsPerHour="618" />
  <flow begin="900" departPos="random_free" departSpeed="max" end="1200" from="np20_nt1" id="f_3_5" speedFactor="0.8" to="nt25_np10" type="type1" vehsPerHour="886" />
  <flow begin="900" departPos="random_free" departSpeed="max" end="1200" from="np2_nt2" id="f_3_6" speedFactor="1.1" to="nt22_np14" type="type1" vehsPerHour="20" />
  <flow begin="900" departPos="random_free" departSpeed="max" end="1200" from="np3_nt3" id="f_3_7" speedFactor="1.0" to="nt23_np13" type="type1" vehsPerHour="22" />
  <flow begin="900" departPos="random_free" departSpeed="max" end="1200" from="np4_nt4" id="f_3_8" speedFactor="1.0" to="nt24_np12" type="type1" vehsPerHour="20" />
  <flow begin="900" departPos="random_free" departSpeed="max" end="1200" from="np6_nt5" id="f_3_9" speedFactor="1.0" to="nt1_np20" type="type1" vehsPerHour="20" />
  <flow begin="900" departPos="random_free" departSpeed="max" end="1200" from="np8_nt15" id="f_3_10" speedFactor="1.0" to="nt11_np18" type="type1" vehsPerHour="20" />
  <flow begin="900" departPos="random_free" departSpeed="max" end="1200" from="np10_nt25" id="f_3_11" speedFactor="1.1" to="nt21_np16" type="type1" vehsPerHour="20" />
  <flow begin="1200" departPos="random_free" departSpeed="max" end="1500" from="np12_nt24" id="f_4_0" speedFactor="1.0" to="nt2_np2" type="type1" vehsPerHour="741" />
  <flow begin="1200" departPos="random_free" departSpeed="max" end="1500" from="np13_nt23" id="f_4_1" speedFactor="1.1" to="nt3_np3" type="type1" vehsPerHour="940" />
  <flow begin="1200" departPos="random_free" departSpeed="max" end="1500" from="np14_nt22" id="f_4_2" speedFactor="1.0" to="nt4_np4" type="type1" vehsPerHour="581" />
  <flow begin="1200" departPos="random_free" departSpeed="max" end="1500" from="np16_nt21" id="f_4_3" speedFactor="1.0" to="nt5_np6" type="type1" vehsPerHour="535" />
  <flow begin="1200" departPos="random_free" departSpeed="max" end="1500" from="np18_nt11" id="f_4_4" speedFactor="1.0" to="nt15_np8" type="type1" vehsPerHour="438" />
  <flow begin="1200" departPos="random_free" departSpeed="max" end="1500" from="np20_nt1" id="f_4_5" speedFactor="1.0" to="nt25_np10" type="type1" vehsPerHour="850" />
  <flow begin="1200" departPos="random_free" departSpeed="max" end="1500" from="np2_nt2" id="f_4_6" speedFactor="0.8" to="nt22_np14" type="type1" vehsPerHour="20" />
  <flow begin="1200" departPos="random_free" departSpeed="max" end="1500" from="np3_nt3" id="f_4_7" speedFactor="1.1" to="nt23_np13" type="type1" vehsPerHour="138" />
  <flow begin="1200" departPos="random_free" departSpeed="max" end="1500" from="np4_nt4" id="f_4_8" speedFactor="1.0" to="nt24_np12" type="type1" vehsPerHour="20" />
  <flow begin="1200" departPos="random_free" departSpeed="max" end="1500" from="np6_nt5" id="f_4_9" speedFactor="1.0" to="nt1_np20" type="type1" vehsPerHour="20" />
  <flow begin="1200" departPos="random_free" departSpeed="max" end="1500" from="np8_nt15" id="f_4_10" speedFactor="1.0" to="nt11_np18" type="type1" vehsPerHour="20" />
  <flow begin="1200" departPos="random_free" departSpeed="max" end="1500" from="np10_nt25" id="f_4_11" speedFactor="1.0" to="nt21_np16" type="type1" vehsPerHour="20" />
  <flow begin="1500" departPos="random_free" departSpeed="max" end="1800" from="np12_nt24" id="f_5_0" speedFactor="1.0" to="nt2_np2" type="type1" vehsPerHour="441" />
  <flow begin="1500" departPos="random_free" departSpeed="max" end="1800" from="np13_nt23" id="f_5_1" speedFactor="1.0" to="nt3_np3" type="type1" vehsPerHour="694" />
  <flow begin="1500" departPos="random_free" departSpeed="max" end="1800" from="np14_nt22" id="f_5_2" speedFactor="1.0" to="nt4_np4" type="type1" vehsPerHour="167" />
  <flow begin="1500" departPos="random_free" departSpeed="max" end="1800" from="np16_nt21" id="f_5_3" speedFactor="1.0" to="nt5_np6" type="type1" vehsPerHour="216" />
  <flow begin="1500" departPos="random_free" departSpeed="max" end="1800" from="np18_nt11" id="f_5_4" speedFactor="1.1" to="nt15_np8" type="type1" vehsPerHour="215" />
  <flow begin="1500" departPos="random_free" departSpeed="max" end="1800" from="np20_nt1" id="f_5_5" speedFactor="1.0" to="nt25_np10" type="type1" vehsPerHour="448" />
  <flow begin="1500" departPos="random_free" departSpeed="max" end="1800" from="np2_nt2" id="f_5_6" speedFactor="1.0" to="nt22_np14" type="type1" vehsPerHour="20" />
  <flow begin="1500" departPos="random_free" departSpeed="max" end="1800" from="np3_nt3" id="f_5_7" speedFactor="1.1" to="nt23_np13" type="type1" vehsPerHour="501" />
  <flow begin="1500" departPos="random_free" departSpeed="max" end="1800" from="np4_nt4" id="f_5_8" speedFactor="1.1" to="nt24_np12" type="type1" vehsPerHour="20" />
  <flow begin="1500" departPos="random_free" departSpeed="max" end="1800" from="np6_nt5" id="f_5_9" speedFactor="1.0" to="nt1_np20" type="type1" vehsPerHour="20" />
  <flow begin="1500" departPos="random_free" departSpeed="max" end="1800" from="np8_nt15" id="f_5_10" speedFactor="1.0" to="nt11_np18" type="type1" vehsPerHour="20" />
  <flow begin="1500" departPos="random_free" departSpeed="max" end="1800" from="np10_nt25" id="f_5_11" speedFactor="1.0" to="nt21_np16" type="type1" vehsPerHour="49" />
  <flow begin="1800" departPos="random_free" departSpeed="max" end="2100" from="np12_nt24" id="f_6_0" speedFactor="0.8" to="nt2_np2" type="type1" vehsPerHour="156" />
  <flow begin="1800" departPos="random_free" departSpeed="max" end="2100" from="np13_nt23" id="f_6_1" speedFactor="1.0" to="nt3_np3" type="type1" vehsPerHour="355" />
  <flow begin="1800" departPos="random_free" departSpeed="max" end="2100" from="np14_nt22" id="f_6_2" speedFactor="1.0" to="nt4_np4" type="type1" vehsPerHour="20" />
  <flow begin="1800" departPos="random_free" departSpeed="max" end="2100" from="np16_nt21" id="f_6_3" speedFactor="0.8" to="nt5_np6" type="type1" vehsPerHour="45" />
  <flow begin="1800" departPos="random_free" departSpeed="max" end="2100" from="np18_nt11" id="f_6_4" speedFactor="1.0" to="nt15_np8" type="type1" vehsPerHour="72" />
  <flow begin="1800" departPos="random_free" departSpeed="max" end="2100" from="np20_nt1" id="f_6_5" speedFactor="1.1" to="nt25_np10" type="type1" vehsPerHour="130" />
  <flow begin="1800" departPos="random_free" departSpeed="max" end="2100" from="np2_nt2" id="f_6_6" speedFactor="1.0" to="nt22_np14" type="type1" vehsPerHour="20" />
  <flow begin="1800" departPos="random_free" departSpeed="max" end="2100" from="np3_nt3" id="f_6_7" speedFactor="1.0" to="nt23_np13" type="type1" vehsPerHour="1073" />
  <flow begin="1800" departPos="random_free" departSpeed="max" end="2100" from="np4_nt4" id="f_6_8" speedFactor="1.0" to="nt24_np12" type="type1" vehsPerHour="32" />
  <flow begin="1800" departPos="random_free" departSpeed="max" end="2100" from="np6_nt5" id="f_6_9" speedFactor="1.0" to="nt1_np20" type="type1" vehsPerHour="37" />
  <flow begin="1800" departPos="random_free" departSpeed="max" end="2100" from="np8_nt15" id="f_6_10" speedFactor="1.0" to="nt11_np18" type="type1" vehsPerHour="20" />
  <flow begin="1800" departPos="random_free" departSpeed="max" end="2100" from="np10_nt25" id="f_6_11" speedFactor="1.0" to="nt21_np16" type="type1" vehsPerHour="202" />
  <flow begin="2100" departPos="random_free" departSpeed="max" end="2400" from="np12_nt24" id="f_7_0" speedFactor="1.0" to="nt2_np2" type="type1" vehsPerHour="33" />
  <flow begin="2100" departPos="random_free" departSpeed="max" end="2400" from="np13_nt23" id="f_7_1" speedFactor="1.0" to="nt3_np3" type="type1" vehsPerHour="126" />
  <flow begin="2100" departPos="random_free" departSpeed="max" end="2400" from="np14_nt22" id="f_7_2" speedFactor="1.0" to="nt4_np4" type="type1" vehsPerHour="20" />
  <flow begin="2100" departPos="random_free" departSpeed="max" end="2400" from="np16_nt21" id="f_7_3" speedFactor="1.0" to="nt5_np6" type="type1" vehsPerHour="20" />
  <flow begin="2100" departPos="random_free" departSpeed="max" end="2400" from="np18_nt11" id="f_7_4" speedFactor="1.1" to="nt15_np8" type="type1" vehsPerHour="20" />
  <flow begin="2100" departPos="random_free" departSpeed="max" end="2400" from="np20_nt1" id="f_7_5" speedFactor="1.0" to="nt25_np10" type="type1" vehsPerHour="20" />
  <flow begin="2100" departPos="random_free" departSpeed="max" end="2400" from="np2_nt2" id="f_7_6" speedFactor="1.0" to="nt22_np14" type="type1" vehsPerHour="88" />
  <flow begin="2100" departPos="random_free" departSpeed="max" end="2400" from="np3_nt3" id="f_7_7" speedFactor="1.0" to="nt23_np13" type="type1" vehsPerHour="1363" />
  <flow begin="2100" departPos="random_free" departSpeed="max" end="2400" from="np4_nt4" id="f_7_8" speedFactor="1.1" to="nt24_np12" type="type1" vehsPerHour="205" />
  <flow begin="2100" departPos="random_free" departSpeed="max" end="2400" from="np6_nt5" id="f_7_9" speedFactor="1.0" to="nt1_np20" type="type1" vehsPerHour="213" />
  <flow begin="2100" departPos="random_free" departSpeed="max" end="2400" from="np8_nt15" id="f_7_10" speedFactor="1.0" to="nt11_np18" type="type1" vehsPerHour="108" />
  <flow begin="2100" departPos="random_free" departSpeed="max" end="2400" from="np10_nt25" id="f_7_11" speedFactor="0.8" to="nt21_np16" type="type1" vehsPerHour="551" />
  <flow begin="2400" departPos="random_free" departSpeed="max" end="2700" from="np12_nt24" id="f_8_0" speedFactor="1.0" to="nt2_np2" type="type1" vehsPerHour="20" />
  <flow begin="2400" departPos="random_free" departSpeed="max" end="2700" from="np13_nt23" id="f_8_1" speedFactor="1.0" to="nt3_np3" type="type1" vehsPerHour="30" />
  <flow begin="2400" departPos="random_free" departSpeed="max" end="2700" from="np14_nt22" id="f_8_2" speedFactor="1.0" to="nt4_np4" type="type1" vehsPerHour="20" />
  <flow begin="2400" departPos="random_free" departSpeed="max" end="2700" from="np16_nt21" id="f_8_3" speedFactor="1.0" to="nt5_np6" type="type1" vehsPerHour="20" />
  <flow begin="2400" departPos="random_free" departSpeed="max" end="2700" from="np18_nt11" id="f_8_4" speedFactor="1.1" to="nt15_np8" type="type1" vehsPerHour="20" />
  <flow begin="2400" departPos="random_free" departSpeed="max" end="2700" from="np20_nt1" id="f_8_5" speedFactor="1.0" to="nt25_np10" type="type1" vehsPerHour="20" />
  <flow begin="2400" departPos="random_free" departSpeed="max" end="2700" from="np2_nt2" id="f_8_6" speedFactor="1.0" to="nt22_np14" type="type1" vehsPerHour="367" />
  <flow begin="2400" departPos="random_free" departSpeed="max" end="2700" from="np3_nt3" id="f_8_7" speedFactor="1.1" to="nt23_np13" type="type1" vehsPerHour="1026" />
  <flow begin="2400" departPos="random_free" departSpeed="max" end="2700" from="np4_nt4" id="f_8_8" speedFactor="1.1" to="nt24_np12" type="type1" vehsPerHour="693" />
  <flow begin="2400" departPos="random_free" departSpeed="max" end="2700" from="np6_nt5" id="f_8_9" speedFactor="1.0" to="nt1_np20" type="type1" vehsPerHour="685" />
  <flow begin="2400" departPos="random_free" departSpeed="max" end="2700" from="np8_nt15" id="f_8_10" speedFactor="1.1" to="nt11_np18" type="type1" vehsPerHour="498" />
  <flow begin="2400" departPos="random_free" departSpeed="max" end="2700" from="np10_nt25" id="f_8_11" speedFactor="1.0" to="nt21_np16" type="type1" vehsPerHour="993" />
  <flow begin="2700" departPos="random_free" departSpeed="max" end="3000" from="np12_nt24" id="f_9_0" speedFactor="1.0" to="nt2_np2" type="type1" vehsPerHour="20" />
  <flow begin="2700" departPos="random_free" departSpeed="max" end="3000" from="np13_nt23" id="f_9_1" speedFactor="1.0" to="nt3_np3" type="type1" vehsPerHour="20" />
  <flow begin="2700" departPos="random_free" departSpeed="max" end="3000" from="np14_nt22" id="f_9_2" speedFactor="0.8" to="nt4_np4" type="type1" vehsPerHour="20" />
  <flow begin="2700" departPos="random_free" departSpeed="max" end="3000" from="np16_nt21" id="f_9_3" speedFactor="1.0" to="nt5_np6" type="type1" vehsPerHour="20" />
  <flow begin="2700" departPos="random_free" departSpeed="max" end="3000" from="np18_nt11" id="f_9_4" speedFactor="1.0" to="nt15_np8" type="type1" vehsPerHour="20" />
  <flow begin="2700" departPos="random_free" departSpeed="max" end="3000" from="np20_nt1" id="f_9_5" speedFactor="1.0" to="nt25_np10" type="type1" vehsPerHour="20" />
  <flow begin="2700" departPos="random_free" departSpeed="max" end="3000" from="np2_nt2" id="f_9_6" speedFactor="1.0" to="nt22_np14" type="type1" vehsPerHour="812" />
  <flow begin="2700" departPos="random_free" departSpeed="max" end="3000" from="np3_nt3" id="f_9_7" speedFactor="1.0" to="nt23_np13" type="type1" vehsPerHour="458" />
  <flow begin="2700" departPos="random_free" departSpeed="max" end="3000" from="np4_nt4" id="f_9_8" speedFactor="1.0" to="nt24_np12" type="type1" vehsPerHour="1251" />
  <flow begin="2700" departPos="random_free" departSpeed="max" end="3000" from="np6_nt5" id="f_9_9" speedFactor="1.0" to="nt1_np20" type="type1" vehsPerHour="1252" />
  <flow begin="2700" departPos="random_free" departSpeed="max" end="3000" from="np8_nt15" id="f_9_10" speedFactor="1.0" to="nt11_np18" type="type1" vehsPerHour="998" />
  <flow begin="2700" departPos="random_free" departSpeed="max" end="3000" from="np10_nt25" id="f_9_11" speedFactor="1.0" to="nt21_np16" type="type1" vehsPerHour="1186" />
</routes>