<routes xmlns:xsi="http://www.w3.org/2001/XMLSchema-instance" xsi:noNamespaceSchemaLocation="http://sumo.dlr.de/xsd/routes_file.xsd">
    <vehicle depart="0.00" departSpeed="max" id="0.0" speedFactor="1.1">
        <route edges="E3 E4 E5 E8 E8.144 E8.328 -E23" />
    </vehicle>
    <vehicle depart="0.00" departSpeed="max" id="1.0" speedFactor="1.0">
        <route edges="E7 E5 E8 E8.144 E8.328 -E23" />
    </vehicle>
    <vehicle depart="0.00" departSpeed="max" id="10.0" speedFactor="1.1">
        <route edges="E20 -E21 -E19 -E18 -E16 -E16.416 -E13" />
    </vehicle>
    <vehicle depart="0.00" departSpeed="max" id="11.0" speedFactor="1.1">
        <route edges="E26 E27 E27.85 E30 -E28 -E29" />
    </vehicle>
    <vehicle depart="0.00" departSpeed="max" id="12.0" speedFactor="1.0">
        <route edges="E24 -E26" />
    </vehicle>
    <vehicle depart="0.00" departSpeed="max" id="13.0" speedFactor="1.0">
        <route edges="-E27 -E27.751 -E26" />
    </vehicle>
    <vehicle depart="0.00" departSpeed="max" id="2.0" speedFactor="1.1">
        <route edges="E6 E5 E8 E8.144 E8.328 -E23" />
    </vehicle>
    <vehicle depart="0.00" departSpeed="max" id="3.0" speedFactor="0.8">
        <route edges="E23 E80 E9 E12 E12.64 E14 -E13" />
    </vehicle>
    <vehicle depart="0.00" departSpeed="max" id="4.0" speedFactor="1.0">
        <route edges="E37 -E23" />
    </vehicle>
    <vehicle depart="0.00" departSpeed="max" id="5.0" speedFactor="1.0">
        <route edges="E11 -E10" />
    </vehicle>
    <vehicle depart="0.00" departSpeed="max" id="6.0" speedFactor="1.0">
        <route edges="E10 -E11" />
    </vehicle>
    <vehicle depart="0.00" departSpeed="max" id="7.0" speedFactor="1.0">
        <route edges="E15 -E13" />
    </vehicle>
    <vehicle depart="0.00" departSpeed="max" id="8.0" speedFactor="1.1">
        <route edges="E13 -E15" />
    </vehicle>
    <vehicle depart="0.00" departSpeed="max" id="9.0" speedFactor="1.0">
        <route edges="E17 -E18 -E16 -E16.416 -E14 -E12 -E12.352 -E9 -E8 -E8.220 -E8.144 -E80 -E5 -E7" />
    </vehicle>
    <vehicle depart="2.23" departSpeed="max" id="0.1" speedFactor="1.0">
        <route edges="E3 E4 E5 E8 E8.144 E8.328 -E37" />
    </vehicle>
    <vehicle depart="4.25" departSpeed="max" id="11.1" speedFactor="1.0">
        <route edges="E26 -E24" />
    </vehicle>
    <vehicle depart="4.45" departSpeed="max" id="0.2" speedFactor="1.0">
        <route edges="E3 E4 E5 E8 E8.144 E8.328 -E37" />
    </vehicle>
    <vehicle depart="4.62" departSpeed="max" id="13.1" speedFactor="1.0">
        <route edges="-E27 -E27.751 -E25 -E22 -E21 -E19 -E18 -E16 -E16.416 -E14 -E12 -E12.352 -E9 -E8 -E37" />
    </vehicle>
    <vehicle depart="5.11" departSpeed="max" id="12.1" speedFactor="1.1">
        <route edges="E24 -E25 -E22 -E21 -E19 -E18 -E16 -E16.416 -E14 -E12 -E12.352 -E9 -E8 -E8.220 -E8.144 -E80 -E5 -E7" />
    </vehicle>
    <vehicle depart="6.68" departSpeed="max" id="0.3" speedFactor="1.0">
        <route edges="E3 E4 E5 E8 E8.144 E8.328 E80 E9 E12 E12.64 E14 E16 E16.94 E18 E19 E21 -E20" />
    </vehicle>
    <vehicle depart="7.32" departSpeed="max" id="2.1" speedFactor="1.0">
        <route edges="E6 E5 E8 E8.144 E8.328 -E37" />
    </vehicle>
    <vehicle depart="8.26" departSpeed="max" id="6.1" speedFactor="1.0">
        <route edges="E10 -E11" />
    </vehicle>
    <vehicle depart="8.49" departSpeed="max" id="11.2" speedFactor="1.0">
        <route edges="E26 -E25 -E22 -E21 -E19 -E17" />
    </vehicle>
    <vehicle depart="8.91" departSpeed="max" id="0.4" speedFactor="1.0">
        <route edges="E3 E4 E5 E8 E8.144 E8.328 E80 E9 E12 E12.64 E14 E16 E16.94 E18 E19 E21 E22 E25 E27 E27.85 E30 -E32 -E48" />
    </vehicle>
    <vehicle depart="9.00" departSpeed="max" id="1.1" speedFactor="1.0">
        <route edges="E7 E5 E8 E8.144 E8.328 E80 E9 -E10" />
    </vehicle>
    <vehicle depart="9.00" departSpeed="max" id="7.1" speedFactor="1.0">
        <route edges="E15 E16 E16.94 E18 -E17" />
    </vehicle>
    <vehicle depart="9.00" departSpeed="max" id="8.1" speedFactor="1.1">
        <route edges="E13 E16 E16.94 E18 E19 E21 -E20" />
    </vehicle>
    <vehicle depart="9.23" departSpeed="max" id="13.2" speedFactor="1.1">
        <route edges="-E27 -E27.751 -E25 -E22 -E20" />
    </vehicle>
    <vehicle depart="10.21" departSpeed="max" id="12.2" speedFactor="1.0">
        <route edges="E24 -E26" />
    </vehicle>
    <vehicle depart="11.14" departSpeed="max" id="0.5" speedFactor="1.1">
        <route edges="E3 E4 E5 E8 E8.144 E8.328 E80 E9 E12 E12.64 E14 -E15" />
    </vehicle>
    <vehicle depart="12.74" departSpeed="max" id="11.3" speedFactor="1.0">
        <route edges="E26 -E25 -E22 -E20" />
    </vehicle>
    <vehicle depart="13.36" departSpeed="max" id="0.6" speedFactor="1.1">
        <route edges="E3 E4 -E7" />
    </vehicle>
    <vehicle depart="13.85" departSpeed="max" id="13.3" speedFactor="1.0">
        <route edges="-E27 -E27.751 -E25 -E22 -E20" />
    </vehicle>
    <vehicle depart="14.63" departSpeed="max" id="2.2" speedFactor="1.0">
        <route edges="E6 -E7" />
    </vehicle>
    <vehicle depart="15.32" departSpeed="max" id="12.3" speedFactor="1.0">
        <route edges="E24 -E25 -E22 -E21 -E19 -E18 -E16 -E16.416 -E15" />
    </vehicle>
    <vehicle depart="15.59" departSpeed="max" id="0.7" speedFactor="1.0">
        <route edges="E3 E4 E5 E8 E8.144 E8.328 -E23" />
    </vehicle>
    <vehicle depart="16.51" departSpeed="max" id="6.2" speedFactor="1.1">
        <route edges="E10 -E9 -E8 -E8.220 -E8.144 -E80 -E5 -E4 -E3 -E0 -E0.276 -E1 -E2" />
    </vehicle>
    <vehicle depart="16.98" departSpeed="max" id="11.4" speedFactor="1.0">
        <route edges="E26 -E24" />
    </vehicle>
    <vehicle depart="17.82" departSpeed="max" id="0.8" speedFactor="1.1">
        <route edges="E3 E4 E5 E8 E8.144 E8.328 E80 E9 E12 E12.64 E14 E16 E16.94 E18 -E17" />
    </vehicle>
    <vehicle depart="18.00" departSpeed="max" id="1.2" speedFactor="1.0">
        <route edges="E7 -E6" />
    </vehicle>
    <vehicle depart="18.00" departSpeed="max" id="5.1" speedFactor="1.0">
        <route edges="E11 -E10" />
    </vehicle>
    <vehicle depart="18.00" departSpeed="max" id="7.2" speedFactor="1.1">
        <route edges="E15 -E14 -E12 -E12.352 -E9 -E8 -E23" />
    </vehicle>
    <vehicle depart="18.00" departSpeed="max" id="8.2" speedFactor="1.1">
        <route edges="E13 -E15" />
    </vehicle>
    <vehicle depart="18.46" departSpeed="max" id="13.4" speedFactor="1.0">
        <route edges="-E27 -E27.751 -E25 -E22 -E21 -E19 -E18 -E16 -E16.416 -E14 -E12 -E12.352 -E9 -E8 -E8.220 -E8.144 -E80 -E5 -E4 -E3 -E0 -E0.276 -264341313#0 -264341313#00 264341313#0 264341313#0.680 -E49" />
    </vehicle>
    <vehicle depart="20.04" departSpeed="max" id="0.9" speedFactor="1.1">
        <route edges="E3 E4 E5 E8 E8.144 E8.328 -E23" />
    </vehicle>
    <vehicle depart="20.42" departSpeed="max" id="12.4" speedFactor="1.0">
        <route edges="E24 E27 E27.85 E30 E31 E31.112 E33 E36 E36.81" />
    </vehicle>
    <vehicle depart="21.23" departSpeed="max" id="11.5" speedFactor="1.1">
        <route edges="E26 -E24" />
    </vehicle>
    <vehicle depart="21.95" departSpeed="max" id="2.3" speedFactor="1.0">
        <route edges="E6 -E7" />
    </vehicle>
    <vehicle depart="22.27" departSpeed="max" id="0.10" speedFactor="1.1">
        <route edges="E3 E4 E5 E8 E8.144 E8.328 E80 E9 E12 E12.64 E14 E16 E16.94 E18 E19 E21 E22 E25 E27 E27.85 E30 E31 E31.112 E33 -E34 -E47" />
    </vehicle>
    <vehicle depart="23.08" departSpeed="max" id="13.5" speedFactor="1.1">
        <route edges="-E27 -E27.751 -E24" />
    </vehicle>
    <vehicle depart="24.50" departSpeed="max" id="0.11" speedFactor="1.1">
        <route edges="E3 E4 E5 E8 E8.144 E8.328 -E23" />
    </vehicle>
    <vehicle depart="24.77" departSpeed="max" id="6.3" speedFactor="1.0">
        <route edges="E10 -E11" />
    </vehicle>
    <vehicle depart="25.47" departSpeed="max" id="11.6" speedFactor="1.1">
        <route edges="E26 -E24" />
    </vehicle>
    <vehicle depart="25.53" departSpeed="max" id="12.5" speedFactor="1.1">
        <route edges="E24 -E25 -E22 -E21 -E19 -E17" />
    </vehicle>
    <vehicle depart="26.72" departSpeed="max" id="0.12" speedFactor="1.0">
        <route edges="E3 E4 E5 E8 E8.144 E8.328 -E23" />
    </vehicle>
    <vehicle depart="27.00" departSpeed="max" id="1.3" speedFactor="1.1">
        <route edges="E7 E5 E8 E8.144 E8.328 -E23" />
    </vehicle>
    <vehicle depart="27.00" departSpeed="max" id="7.3" speedFactor="1.1">
        <route edges="E15 -E14 -E12 -E12.352 -E10" />
    </vehicle>
    <vehicle depart="27.00" departSpeed="max" id="8.3" speedFactor="1.0">
        <route edges="E13 -E14 -E12 -E12.352 -E9 -E8 -E37" />
    </vehicle>
    <vehicle depart="27.69" departSpeed="max" id="13.6" speedFactor="1.1">
        <route edges="-E27 -E27.751 -E25 -E22 -E21 -E19 -E17" />
    </vehicle>
    <vehicle depart="28.95" departSpeed="max" id="0.13" speedFactor="0.8">
        <route edges="E3 E4 E5 E8 E8.144 E8.328 -E37" />
    </vehicle>
    <vehicle depart="29.27" departSpeed="max" id="2.4" speedFactor="0.8">
        <route edges="E6 -E7" />
    </vehicle>
    <vehicle depart="29.72" departSpeed="max" id="11.7" speedFactor="1.0">
        <route edges="E26 E27 E27.85 E30 E31 E31.112 E33 E36 E36.81" />
    </vehicle>
    <vehicle depart="30.64" departSpeed="max" id="12.6" speedFactor="1.0">
        <route edges="E24 E27 E27.85 E30 -E28 -E29" />
    </vehicle>
    <vehicle depart="31.18" departSpeed="max" id="0.14" speedFactor="1.0">
        <route edges="E3 E4 E5 E8 E8.144 E8.328 -E23" />
    </vehicle>
    <vehicle depart="32.31" departSpeed="max" id="13.7" speedFactor="1.0">
        <route edges="-E27 -E27.751 -E26" />
    </vehicle>
    <vehicle depart="33.02" departSpeed="max" id="6.4" speedFactor="1.0">
        <route edges="E10 E12 E12.64 E14 E16 E16.94 E18 E19 E21 -E20" />
    </vehicle>
    <vehicle depart="33.41" departSpeed="max" id="0.15" speedFactor="1.0">
        <route edges="E3 E4 E5 E8 E8.144 E8.328 E80 E9 E12 E12.64 E14 -E15" />
    </vehicle>
    <vehicle depart="33.96" departSpeed="max" id="11.8" speedFactor="1.0">
        <route edges="E26 E27 E27.85 E30 E31 E31.112 E33 -E35" />
    </vehicle>
    <vehicle depart="35.63" departSpeed="max" id="0.16" speedFactor="1.1">
        <route edges="E3 E4 E5 E8 E8.144 E8.328 -E23" />
    </vehicle>
    <vehicle depart="35.74" departSpeed="max" id="12.7" speedFactor="1.1">
        <route edges="E24 E27 E27.85 E30 E31 E31.112 E33 -E34 -E47" />
    </vehicle>
    <vehicle depart="36.00" departSpeed="max" id="1.4" speedFactor="0.8">
        <route edges="E7 E5 E8 E8.144 E8.328 -E37" />
    </vehicle>
    <vehicle depart="36.00" departSpeed="max" id="10.1" speedFactor="1.1">
        <route edges="E20 E22 E25 E27 E27.85 E30 -E32 -E48" />
    </vehicle>
    <vehicle depart="36.00" departSpeed="max" id="3.1" speedFactor="1.0">
        <route edges="E23 E80 E9 E12 E12.64 E14 E16 E16.94 E18 -E17" />
    </vehicle>
    <vehicle depart="36.00" departSpeed="max" id="4.1" speedFactor="1.0">
        <route edges="E37 -E23" />
    </vehicle>
    <vehicle depart="36.00" departSpeed="max" id="5.2" speedFactor="1.0">
        <route edges="E11 E12 E12.64 E14 E16 E16.94 E18 -E17" />
    </vehicle>
    <vehicle depart="36.00" departSpeed="max" id="7.4" speedFactor="1.0">
        <route edges="E15 E16 E16.94 E18 -E17" />
    </vehicle>
    <vehicle depart="36.00" departSpeed="max" id="8.4" speedFactor="1.0">
        <route edges="E13 E16 E16.94 E18 E19 E21 -E20" />
    </vehicle>
    <vehicle depart="36.00" departSpeed="max" id="9.1" speedFactor="1.0">
        <route edges="E17 -E18 -E16 -E16.416 -E14 -E12 -E12.352 -E9 -E8 -E37" />
    </vehicle>
    <vehicle depart="36.59" departSpeed="max" id="2.5" speedFactor="1.0">
        <route edges="E6 -E4 -E3 842463330#1 -842463330#1 -E0 -E0.276 -264341313#0 -264341313#00 264341313#0 264341313#0.680 -E1 -E2" />
    </vehicle>
    <vehicle depart="36.92" departSpeed="max" id="13.8" speedFactor="0.9000000000000001">
        <route edges="-E27 -E27.751 -E25 -E22 -E21 -E19 -E18 -E16 -E16.416 -E14 -E12 -E12.352 -E11" />
    </vehicle>
    <vehicle depart="37.86" departSpeed="max" id="0.17" speedFactor="1.0">
        <route edges="E3 E4 E5 E8 E8.144 E8.328 -E23" />
    </vehicle>
    <vehicle depart="38.21" departSpeed="max" id="11.9" speedFactor="1.0">
        <route edges="E26 -E24" />
    </vehicle>
    <vehicle depart="40.09" departSpeed="max" id="0.18" speedFactor="1.0">
        <route edges="E3 E4 E5 E8 E8.144 E8.328 E80 E9 -E11" />
    </vehicle>
    <vehicle depart="40.85" departSpeed="max" id="12.8" speedFactor="1.1">
        <route edges="E24 -E26" />
    </vehicle>
    <vehicle depart="41.28" departSpeed="max" id="6.5" speedFactor="1.0">
        <route edges="E10 -E9 -E8 -E37" />
    </vehicle>
    <vehicle depart="41.54" departSpeed="max" id="13.9" speedFactor="1.0">
        <route edges="-E27 -E27.751 -E24" />
    </vehicle>
    <vehicle depart="42.31" departSpeed="max" id="0.19" speedFactor="0.8">
        <route edges="E3 E4 E5 E8 E8.144 E8.328 E80 E9 E12 E12.64 E14 E16 E16.94 E18 E19 E21 E22 E25 E27 E27.85 E30 E31 E31.112 E33 -E35" />
    </vehicle>
    <vehicle depart="42.45" departSpeed="max" id="11.10" speedFactor="1.1">
        <route edges="E26 -E25 -E22 -E20" />
    </vehicle>
    <vehicle depart="43.90" departSpeed="max" id="2.6" speedFactor="1.0">
        <route edges="E6 E5 E8 E8.144 E8.328 E80 E9 E12 E12.64 E14 -E15" />
    </vehicle>
    <vehicle depart="44.54" departSpeed="max" id="0.20" speedFactor="1.0">
        <route edges="E3 E4 E5 E8 E8.144 E8.328 -E37" />
    </vehicle>
    <vehicle depart="45.00" departSpeed="max" id="1.5" speedFactor="1.0">
        <route edges="E7 -E6" />
    </vehicle>
    <vehicle depart="45.00" departSpeed="max" id="7.5" speedFactor="1.0">
        <route edges="E15 E16 E16.94 E18 -E17" />
    </vehicle>
    <vehicle depart="45.00" departSpeed="max" id="8.5" speedFactor="1.0">
        <route edges="E13 -E15" />
    </vehicle>
    <vehicle depart="45.95" departSpeed="max" id="12.9" speedFactor="1.1">
        <route edges="E24 -E26" />
    </vehicle>
    <vehicle depart="46.15" departSpeed="max" id="13.10" speedFactor="1.0">
        <route edges="-E27 -E27.751 -E25 -E22 -E20" />
    </vehicle>
    <vehicle depart="46.70" departSpeed="max" id="11.11" speedFactor="1.1">
        <route edges="E26 -E24" />
    </vehicle>
    <vehicle depart="46.77" departSpeed="max" id="0.21" speedFactor="1.0">
        <route edges="E3 E4 E5 E8 E8.144 E8.328 -E37" />
    </vehicle>
    <vehicle depart="48.99" departSpeed="max" id="0.22" speedFactor="1.0">
        <route edges="E3 E4 E5 E8 E8.144 E8.328 -E23" />
    </vehicle>
    <vehicle depart="49.54" departSpeed="max" id="6.6" speedFactor="1.0">
        <route edges="E10 -E11" />
    </vehicle>
    <vehicle depart="50.77" departSpeed="max" id="13.11" speedFactor="1.0">
        <route edges="-E27 -E27.751 -E26" />
    </vehicle>
    <vehicle depart="50.94" departSpeed="max" id="11.12" speedFactor="1.0">
        <route edges="E26 E27 E27.85 E30 -E32 -E48" />
    </vehicle>
    <vehicle depart="51.06" departSpeed="max" id="12.10" speedFactor="1.1">
        <route edges="E24 E27 E27.85 E30 E31 E31.112 E33 -E34 -E47" />
    </vehicle>
    <vehicle depart="51.22" departSpeed="max" id="2.7" speedFactor="1.1">
        <route edges="E6 E5 E8 E8.144 E8.328 -E37" />
    </vehicle>
    <vehicle depart="51.22" departSpeed="max" id="0.23" speedFactor="1.1">
        <route edges="E3 E4 -E7" />
    </vehicle>
    <vehicle depart="53.45" departSpeed="max" id="0.24" speedFactor="1.0">
        <route edges="E3 E4 E5 E8 E8.144 E8.328 -E23" />
    </vehicle>
    <vehicle depart="54.00" departSpeed="max" id="1.6" speedFactor="1.0">
        <route edges="E7 -E6" />
    </vehicle>
    <vehicle depart="54.00" departSpeed="max" id="5.3" speedFactor="1.0">
        <route edges="E11 E12 E12.64 E14 E16 E16.94 E18 -E17" />
    </vehicle>
    <vehicle depart="54.00" departSpeed="max" id="7.6" speedFactor="1.0">
        <route edges="E15 E16 E16.94 E18 E19 E21 E22 E25 E27 E27.85 E30 -E28 -E29" />
    </vehicle>
    <vehicle depart="54.00" departSpeed="max" id="8.6" speedFactor="1.1">
        <route edges="E13 -E15" />
    </vehicle>
    <vehicle depart="55.19" departSpeed="max" id="11.13" speedFactor="1.0">
        <route edges="E26 -E24" />
    </vehicle>
    <vehicle depart="55.38" departSpeed="max" id="13.12" speedFactor="1.0">
        <route edges="-E27 -E27.751 -E25 -E22 -E20" />
    </vehicle>
    <vehicle depart="55.68" departSpeed="max" id="0.25" speedFactor="1.0">
        <route edges="E3 E4 E5 E8 E8.144 E8.328 -E37" />
    </vehicle>
    <vehicle depart="56.17" departSpeed="max" id="12.11" speedFactor="1.0">
        <route edges="E24 -E26" />
    </vehicle>
    <vehicle depart="57.79" departSpeed="max" id="6.7" speedFactor="0.9000000000000001">
        <route edges="E10 -E11" />
    </vehicle>
    <vehicle depart="57.90" departSpeed="max" id="0.26" speedFactor="1.0">
        <route edges="E3 E4 E5 E8 E8.144 E8.328 -E37" />
    </vehicle>
    <vehicle depart="58.54" departSpeed="max" id="2.8" speedFactor="1.1">
        <route edges="E6 -E7" />
    </vehicle>
    <vehicle depart="59.43" departSpeed="max" id="11.14" speedFactor="1.0">
        <route edges="E26 -E24" />
    </vehicle>
    <vehicle depart="60.00" departSpeed="max" id="13.13" speedFactor="1.0">
        <route edges="-E27 -E27.751 -E25 -E22 -E21 -E19 -E18 -E16 -E16.416 -E14 -E12 -E12.352 -E10" />
    </vehicle>
    <vehicle depart="60.13" departSpeed="max" id="0.27" speedFactor="1.0">
        <route edges="E3 E4 E5 E8 E8.144 E8.328 E80 E9 E12 E12.64 E14 E16 E16.94 E18 -E17" />
    </vehicle>
    <vehicle depart="61.27" departSpeed="max" id="12.12" speedFactor="1.0">
        <route edges="E24 -E26" />
    </vehicle>
    <vehicle depart="62.36" departSpeed="max" id="0.28" speedFactor="1.0">
        <route edges="E3 E4 E5 E8 E8.144 E8.328 E80 E9 E12 E12.64 E14 E16 E16.94 E18 -E17" />
    </vehicle>
    <vehicle depart="63.00" departSpeed="max" id="1.7" speedFactor="1.0">
        <route edges="E7 -E6" />
    </vehicle>
    <vehicle depart="63.00" departSpeed="max" id="7.7" speedFactor="1.0">
        <route edges="E15 -E13" />
    </vehicle>
    <vehicle depart="63.00" departSpeed="max" id="8.7" speedFactor="1.0">
        <route edges="E13 -E14 -E12 -E12.352 -E9 -E8 -E8.220 -E8.144 -E80 -E5 -E4 -E3 842463330#1 -842463330#1 -E0 -E0.276 -E1 -E2" />
    </vehicle>
    <vehicle depart="63.68" departSpeed="max" id="11.15" speedFactor="1.0">
        <route edges="E26 E27 E27.85 E30 -E28 -E29" />
    </vehicle>
    <vehicle depart="64.58" departSpeed="max" id="0.29" speedFactor="1.0">
        <route edges="E3 E4 E5 E8 E8.144 E8.328 -E23" />
    </vehicle>
    <vehicle depart="64.61" departSpeed="max" id="13.14" speedFactor="1.0">
        <route edges="-E27 -E27.751 -E25 -E22 -E21 -E19 -E18 -E16 -E16.416 -E15" />
    </vehicle>
    <vehicle depart="65.85" departSpeed="max" id="2.9" speedFactor="1.0">
        <route edges="E6 -E7" />
    </vehicle>
    <vehicle depart="66.05" departSpeed="max" id="6.8" speedFactor="1.0">
        <route edges="E10 -E11" />
    </vehicle>
    <vehicle depart="66.38" departSpeed="max" id="12.13" speedFactor="1.0">
        <route edges="E24 -E25 -E22 -E21 -E19 -E18 -E16 -E16.416 -E15" />
    </vehicle>
    <vehicle depart="66.81" departSpeed="max" id="0.30" speedFactor="1.0">
        <route edges="E3 E4 E5 E8 E8.144 E8.328 E80 E9 E12 E12.64 E14 E16 E16.94 E18 -E17" />
    </vehicle>
    <vehicle depart="67.92" departSpeed="max" id="11.16" speedFactor="0.9000000000000001">
        <route edges="E26 E27 E27.85 E30 E31 E31.112 E33 E36 E36.81" />
    </vehicle>
    <vehicle depart="69.04" departSpeed="max" id="0.31" speedFactor="1.0">
        <route edges="E3 E4 -E7" />
    </vehicle>
    <vehicle depart="69.23" departSpeed="max" id="13.15" speedFactor="1.1">
        <route edges="-E27 -E27.751 -E25 -E22 -E20" />
    </vehicle>
    <vehicle depart="71.26" departSpeed="max" id="0.32" speedFactor="1.0">
        <route edges="E3 E4 E5 E8 E8.144 E8.328 E80 E9 E12 E12.64 E14 E16 E16.94 E18 E19 E21 -E20" />
    </vehicle>
    <vehicle depart="71.48" departSpeed="max" id="12.14" speedFactor="1.1">
        <route edges="E24 -E25 -E22 -E21 -E19 -E17" />
    </vehicle>
    <vehicle depart="72.00" departSpeed="max" id="1.8" speedFactor="1.0">
        <route edges="E7 -E4 -E3 -E0 -E0.276 -E1 -E2" />
    </vehicle>
    <vehicle depart="72.00" departSpeed="max" id="10.2" speedFactor="1.0">
        <route edges="E20 -E21 -E19 -E17" />
    </vehicle>
    <vehicle depart="72.00" departSpeed="max" id="3.2" speedFactor="1.0">
        <route edges="E23 -E37" />
    </vehicle>
    <vehicle depart="72.00" departSpeed="max" id="4.2" speedFactor="1.0">
        <route edges="E37 -E8.220 -E8.144 -E80 -E5 -E4 -E3 842463330#1 -842463330#1 E3 E4 E5 E8 E8.144 E8.328 -E23" />
    </vehicle>
    <vehicle depart="72.00" departSpeed="max" id="5.4" speedFactor="1.1">
        <route edges="E11 E12 E12.64 E14 E16 E16.94 E18 E19 E21 -E20" />
    </vehicle>
    <vehicle depart="72.00" departSpeed="max" id="7.8" speedFactor="1.0">
        <route edges="E15 -E13" />
    </vehicle>
    <vehicle depart="72.00" departSpeed="max" id="8.8" speedFactor="1.0">
        <route edges="E13 -E15" />
    </vehicle>
    <vehicle depart="72.00" departSpeed="max" id="9.2" speedFactor="1.0">
        <route edges="E17 -E18 -E16 -E16.416 -E14 -E12 -E12.352 -E9 -E8 -E8.220 -E8.144 -E80 -E5 -E4 -E3 842463330#1 -842463330#1 E3 E4 E5 E8 E8.144 E8.328 E80 E9 -E11" />
    </vehicle>
    <vehicle depart="72.17" departSpeed="max" id="11.17" speedFactor="1.0">
        <route edges="E26 -E25 -E22 -E20" />
    </vehicle>
    <vehicle depart="73.17" departSpeed="max" id="2.10" speedFactor="1.0">
        <route edges="E6 -E7" />
    </vehicle>
    <vehicle depart="73.49" departSpeed="max" id="0.33" speedFactor="1.0">
        <route edges="E3 E4 E5 E8 E8.144 E8.328 E80 E9 E12 E12.64 E14 -E13" />
    </vehicle>
    <vehicle depart="73.84" departSpeed="max" id="13.16" speedFactor="1.0">
        <route edges="-E27 -E27.751 -E25 -E22 -E21 -E19 -E17" />
    </vehicle>
    <vehicle depart="74.30" departSpeed="max" id="6.9" speedFactor="1.0">
        <route edges="E10 -E9 -E8 -E8.220 -E8.144 -E80 -E5 -E7" />
    </vehicle>
    <vehicle depart="75.72" departSpeed="max" id="0.34" speedFactor="1.0">
        <route edges="E3 E4 E5 E8 E8.144 E8.328 -E23" />
    </vehicle>
    <vehicle depart="76.41" departSpeed="max" id="11.18" speedFactor="1.0">
        <route edges="E26 -E25 -E22 -E21 -E19 -E18 -E16 -E16.416 -E14 -E12 -E12.352 -E9 -E8 -E8.220 -E8.144 -E80 -E5 -E4 -E3 -E0 -E0.276 -E49" />
    </vehicle>
    <vehicle depart="76.59" departSpeed="max" id="12.15" speedFactor="1.0">
        <route edges="E24 -E25 -E22 -E21 -E19 -E17" />
    </vehicle>
    <vehicle depart="77.95" departSpeed="max" id="0.35" speedFactor="1.0">
        <route edges="E3 E4 E5 E8 E8.144 E8.328 -E23" />
    </vehicle>
    <vehicle depart="78.46" departSpeed="max" id="13.17" speedFactor="1.0">
        <route edges="-E27 -E27.751 -E25 -E22 -E20" />
    </vehicle>
    <vehicle depart="80.17" departSpeed="max" id="0.36" speedFactor="1.0">
        <route edges="E3 E4 E5 E8 E8.144 E8.328 -E23" />
    </vehicle>
    <vehicle depart="80.49" departSpeed="max" id="2.11" speedFactor="1.0">
        <route edges="E6 E5 E8 E8.144 E8.328 E80 E9 E12 E12.64 E14 E16 E16.94 E18 -E17" />
    </vehicle>
    <vehicle depart="80.66" departSpeed="max" id="11.19" speedFactor="1.0">
        <route edges="E26 -E24" />
    </vehicle>
    <vehicle depart="81.00" departSpeed="max" id="1.9" speedFactor="1.0">
        <route edges="E7 E5 E8 E8.144 E8.328 -E37" />
    </vehicle>
    <vehicle depart="81.00" departSpeed="max" id="7.9" speedFactor="1.1">
        <route edges="E15 -E13" />
    </vehicle>
    <vehicle depart="81.00" departSpeed="max" id="8.9" speedFactor="1.0">
        <route edges="E13 E16 E16.94 E18 -E17" />
    </vehicle>
    <vehicle depart="81.70" departSpeed="max" id="12.16" speedFactor="1.0">
        <route edges="E24 -E26" />
    </vehicle>
    <vehicle depart="82.40" departSpeed="max" id="0.37" speedFactor="1.1">
        <route edges="E3 E4 -E6" />
    </vehicle>
    <vehicle depart="82.56" departSpeed="max" id="6.10" speedFactor="1.1">
        <route edges="E10 E12 E12.64 E14 E16 E16.94 E18 -E17" />
    </vehicle>
    <vehicle depart="83.07" departSpeed="max" id="13.18" speedFactor="1.0">
        <route edges="-E27 -E27.751 -E25 -E22 -E20" />
    </vehicle>
    <vehicle depart="84.63" departSpeed="max" id="0.38" speedFactor="0.8">
        <route edges="E3 E4 E5 E8 E8.144 E8.328 -E37" />
    </vehicle>
    <vehicle depart="84.90" departSpeed="max" id="11.20" speedFactor="1.0">
        <route edges="E26 -E24" />
    </vehicle>
    <vehicle depart="86.80" departSpeed="max" id="12.17" speedFactor="1.1">
        <route edges="E24 E27 E27.85 E30 E31 E31.112 E33 -E34 -E47" />
    </vehicle>
    <vehicle depart="86.85" departSpeed="max" id="0.39" speedFactor="1.0">
        <route edges="E3 E4 E5 E8 E8.144 E8.328 E80 E9 -E10" />
    </vehicle>
    <vehicle depart="87.69" departSpeed="max" id="13.19" speedFactor="0.8">
        <route edges="-E27 -E27.751 -E26" />
    </vehicle>
    <vehicle depart="87.80" departSpeed="max" id="2.12" speedFactor="1.0">
        <route edges="E6 E5 E8 E8.144 E8.328 E80 E9 E12 E12.64 E14 E16 E16.94 E18 -E17" />
    </vehicle>
    <vehicle depart="89.08" departSpeed="max" id="0.40" speedFactor="1.0">
        <route edges="E3 E4 E5 E8 E8.144 E8.328 -E23" />
    </vehicle>
    <vehicle depart="89.15" departSpeed="max" id="11.21" speedFactor="1.0">
        <route edges="E26 E27 E27.85 E30 -E28 -E29" />
    </vehicle>
    <vehicle depart="90.00" departSpeed="max" id="1.10" speedFactor="1.1">
        <route edges="E7 -E6" />
    </vehicle>
    <vehicle depart="90.00" departSpeed="max" id="5.5" speedFactor="1.0">
        <route edges="E11 -E10" />
    </vehicle>
    <vehicle depart="90.00" departSpeed="max" id="7.10" speedFactor="1.0">
        <route edges="E15 -E13" />
    </vehicle>
    <vehicle depart="90.00" departSpeed="max" id="8.10" speedFactor="1.0">
        <route edges="E13 -E15" />
    </vehicle>
    <vehicle depart="90.82" departSpeed="max" id="6.11" speedFactor="1.0">
        <route edges="E10 -E9 -E8 -E23" />
    </vehicle>
    <vehicle depart="91.31" departSpeed="max" id="0.41" speedFactor="1.0">
        <route edges="E3 E4 E5 E8 E8.144 E8.328 E80 E9 E12 E12.64 E14 E16 E16.94 E18 E19 E21 -E20" />
    </vehicle>
    <vehicle depart="91.91" departSpeed="max" id="12.18" speedFactor="1.0">
        <route edges="E24 -E25 -E22 -E20" />
    </vehicle>
    <vehicle depart="92.30" departSpeed="max" id="13.20" speedFactor="1.1">
        <route edges="-E27 -E27.751 -E25 -E22 -E20" />
    </vehicle>
    <vehicle depart="93.39" departSpeed="max" id="11.22" speedFactor="1.1">
        <route edges="E26 E27 E27.85 E30 E31 E31.112 E33 E36 E36.81" />
    </vehicle>
    <vehicle depart="93.53" departSpeed="max" id="0.42" speedFactor="1.0">
        <route edges="E3 E4 E5 E8 E8.144 E8.328 -E37" />
    </vehicle>
    <vehicle depart="95.12" departSpeed="max" id="2.13" speedFactor="1.0">
        <route edges="E6 -E7" />
    </vehicle>
    <vehicle depart="95.76" departSpeed="max" id="0.43" speedFactor="1.0">
        <route edges="E3 E4 E5 E8 E8.144 E8.328 E80 E9 E12 E12.64 E14 E16 E16.94 E18 E19 E21 -E20" />
    </vehicle>
    <vehicle depart="96.92" departSpeed="max" id="13.21" speedFactor="1.0">
        <route edges="-E27 -E27.751 -E24" />
    </vehicle>
    <vehicle depart="97.01" departSpeed="max" id="12.19" speedFactor="1.0">
        <route edges="E24 -E26" />
    </vehicle>
    <vehicle depart="97.64" departSpeed="max" id="11.23" speedFactor="1.0">
        <route edges="E26 -E25 -E22 -E20" />
    </vehicle>
    <vehicle depart="97.99" departSpeed="max" id="0.44" speedFactor="1.0">
        <route edges="E3 E4 E5 E8 E8.144 E8.328 -E37" />
    </vehicle>
    <vehicle depart="99.00" departSpeed="max" id="1.11" speedFactor="1.1">
        <route edges="E7 E5 E8 E8.144 E8.328 -E37" />
    </vehicle>
    <vehicle depart="99.00" departSpeed="max" id="7.11" speedFactor="1.1">
        <route edges="E15 -E14 -E12 -E12.352 -E9 -E8 -E23" />
    </vehicle>
    <vehicle depart="99.00" departSpeed="max" id="8.11" speedFactor="1.1">
        <route edges="E13 E16 E16.94 E18 -E17" />
    </vehicle>
    <vehicle depart="99.07" departSpeed="max" id="6.12" speedFactor="0.8">
        <route edges="E10 -E11" />
    </vehicle>
    <vehicle depart="100.22" departSpeed="max" id="0.45" speedFactor="1.0">
        <route edges="E3 E4 E5 E8 E8.144 E8.328 -E37" />
    </vehicle>
    <vehicle depart="101.53" departSpeed="max" id="13.22" speedFactor="1.0">
        <route edges="-E27 -E27.751 -E25 -E22 -E20" />
    </vehicle>
    <vehicle depart="101.88" departSpeed="max" id="11.24" speedFactor="1.1">
        <route edges="E26 E27 E27.85 E30 -E28 -E29" />
    </vehicle>
    <vehicle depart="102.12" departSpeed="max" id="12.20" speedFactor="1.0">
        <route edges="E24 -E26" />
    </vehicle>
    <vehicle depart="102.44" departSpeed="max" id="2.14" speedFactor="1.0">
        <route edges="E6 E5 E8 E8.144 E8.328 -E23" />
    </vehicle>
    <vehicle depart="102.44" departSpeed="max" id="0.46" speedFactor="1.0">
        <route edges="E3 E4 E5 E8 E8.144 E8.328 -E37" />
    </vehicle>
    <vehicle depart="104.67" departSpeed="max" id="0.47" speedFactor="1.0">
        <route edges="E3 E4 E5 E8 E8.144 E8.328 -E37" />
    </vehicle>
    <vehicle depart="106.13" departSpeed="max" id="11.25" speedFactor="1.0">
        <route edges="E26 -E24" />
    </vehicle>
    <vehicle depart="106.15" departSpeed="max" id="13.23" speedFactor="0.9000000000000001">