<routes xmlns:xsi="http://www.w3.org/2001/XMLSchema-instance" xsi:noNamespaceSchemaLocation="http://sumo.dlr.de/xsd/routes_file.xsd">
    <vehicle depart="0.00" departSpeed="max" id="0" speedFactor="1.0">
        <route edges="top3D3 D3D2 D2C2 C2C3 C3D3 D3top3" />
    </vehicle>
    <vehicle depart="9.00" departSpeed="max" id="1" speedFactor="1.0">
        <route edges="left0A0 A0A1 A1A2 A2A3 A3top0" />
    </vehicle>
    <vehicle depart="14.00" departSpeed="max" id="2" speedFactor="1.0">
        <route edges="left0A0 A0B0 B0bottom1" />
    </vehicle>
    <vehicle depart="27.00" departSpeed="max" id="3" speedFactor="1.0">
        <route edges="right3D3 D3C3 C3B3 B3A3 A3A2 A2A1 A1A0 A0bottom0" />
    </vehicle>
    <vehicle depart="34.00" departSpeed="max" id="4" speedFactor="1.0">
        <route edges="left2A2 A2B2 B2B1 B1A1 A1A2 A2left2" />
    </vehicle>
    <vehicle depart="36.00" departSpeed="max" id="5" speedFactor="1.0">
        <route edges="bottom1B0 B0B1 B1B2 B2B3 B3top1" />
    </vehicle>
    <vehicle depart="38.00" departSpeed="max" id="6" speedFactor="0.8">
        <route edges="bottom1B0 B0A0 A0left0" />
    </vehicle>
    <vehicle depart="53.00" departSpeed="max" id="7" speedFactor="1.0">
        <route edges="top1B3 B3C3 C3D3 D3top3" />
    </vehicle>
    <vehicle depart="57.00" departSpeed="max" id="8" speedFactor="1.0">
        <route edges="top2C3 C3D3 D3top3" />
    </vehicle>
    <vehicle depart="61.00" departSpeed="max" id="9" speedFactor="1.0">
        <route edges="top1B3 B3B2 B2B1 B1B0 B0C0 C0D0 D0right0" />
    </vehicle>
    <vehicle depart="62.00" departSpeed="max" id="10" speedFactor="1.0">
        <route edges="bottom2C0 C0C1 C1C2 C2D2 D2right2" />
    </vehicle>
    <vehicle depart="70.00" departSpeed="max" id="11" speedFactor="1.0">
        <route edges="left1A1 A1B1 B1B0 B0A0 A0A1 A1left1" />
    </vehicle>
    <vehicle depart="74.00" departSpeed="max" id="12" speedFactor="1.1">
        <route edges="top3D3 D3D2 D2D1 D1D0 D0right0" />
    </vehicle>
    <vehicle depart="76.00" departSpeed="max" id="13" speedFactor="1.0">
        <route edges="right1D1 D1D2 D2D3 D3top3" />
    </vehicle>
    <vehicle depart="77.00" departSpeed="max" id="14" speedFactor="1.1">
        <route edges="right0D0 D0D1 D1D2 D2right2" />
    </vehicle>
    <vehicle depart="79.00" departSpeed="max" id="15" speedFactor="1.0">
        <route edges="left0A0 A0B0 B0C0 C0D0 D0right0" />
    </vehicle>
    <vehicle depart="84.00" departSpeed="max" id="16" speedFactor="1.0">
        <route edges="left2A2 A2B2 B2B3 B3top1" />
    </vehicle>
    <vehicle depart="85.00" departSpeed="max" id="17" speedFactor="1.0">
        <route edges="bottom2C0 C0C1 C1C2 C2C3 C3D3 D3right3" />
    </vehicle>
    <vehicle depart="87.00" departSpeed="max" id="18" speedFactor="1.0">
        <route edges="left0A0 A0B0 B0B1 B1B2 B2B3 B3C3 C3D3 D3right3" />
    </vehicle>
    <vehicle depart="90.00" departSpeed="max" id="19" speedFactor="1.1">
        <route edges="right2D2 D2C2 C2C1 C1C0 C0bottom2" />
    </vehicle>
    <vehicle depart="98.00" departSpeed="max" id="20" speedFactor="0.8">
        <route edges="bottom2C0 C0C1 C1C2 C2D2 D2right2" />
    </vehicle>
    <vehicle depart="101.00" departSpeed="max" id="21" speedFactor="1.0">
        <route edges="top0A3 A3A2 A2B2 B2C2 C2C1 C1C0 C0bottom2" />
    </vehicle>
    <vehicle depart="104.00" departSpeed="max" id="22" speedFactor="1.0">
        <route edges="top1B3 B3C3 C3D3 D3top3" />
    </vehicle>
    <vehicle depart="106.00" departSpeed="max" id="23" speedFactor="0.8">
        <route edges="bottom2C0 C0C1 C1D1 D1right1" />
    </vehicle>
    <vehicle depart="110.00" departSpeed="max" id="24" speedFactor="1.0">
        <route edges="bottom2C0 C0B0 B0bottom1" />
    </vehicle>
    <vehicle depart="111.00" departSpeed="max" id="25" speedFactor="0.8">
        <route edges="right3D3 D3top3" />
    </vehicle>
    <vehicle depart="111.00" departSpeed="max" id="26" speedFactor="1.0">
        <route edges="bottom0A0 A0B0 B0B1 B1B2 B2B3 B3top1" />
    </vehicle>
    <vehicle depart="114.00" departSpeed="max" id="27" speedFactor="1.0">
        <route edges="bottom1B0 B0B1 B1B2 B2B3 B3A3 A3left3" />
    </vehicle>
    <vehicle depart="117.00" departSpeed="max" id="28" speedFactor="1.0">
        <route edges="top0A3 A3A2 A2B2 B2B1 B1B0 B0bottom1" />
    </vehicle>
    <vehicle depart="118.00" departSpeed="max" id="29" speedFactor="1.0">
        <route edges="right2D2 D2D3 D3C3 C3B3 B3A3 A3left3" />
    </vehicle>
    <vehicle depart="137.00" departSpeed="max" id="30" speedFactor="0.8">
        <route edges="top0A3 A3A2 A2B2 B2C2 C2C1 C1C0 C0bottom2" />
    </vehicle>
    <vehicle depart="138.00" departSpeed="max" id="31" speedFactor="1.1">
        <route edges="left3A3 A3B3 B3top1" />
    </vehicle>
    <vehicle depart="139.00" departSpeed="max" id="32" speedFactor="1.0">
        <route edges="top2C3 C3D3 D3right3" />
    </vehicle>
    <vehicle depart="139.00" departSpeed="max" id="33" speedFactor="0.8">
        <route edges="left1A1 A1B1 B1C1 C1D1 D1right1" />
    </vehicle>
    <vehicle depart="143.00" departSpeed="max" id="34" speedFactor="1.0">
        <route edges="left1A1 A1B1 B1C1 C1D1 D1D2 D2D3 D3top3" />
    </vehicle>
    <vehicle depart="146.00" departSpeed="max" id="35" speedFactor="1.0">
        <route edges="top0A3 A3A2 A2A1 A1A0 A0left0" />
    </vehicle>
    <vehicle depart="154.00" departSpeed="max" id="36" speedFactor="1.1">
        <route edges="left2A2 A2B2 B2C2 C2D2 D2D3 D3top3" />
    </vehicle>
    <vehicle depart="155.00" departSpeed="max" id="37" speedFactor="1.0">
        <route edges="right3D3 D3C3 C3C2 C2C1 C1C0 C0B0 B0A0 A0left0" />
    </vehicle>
    <vehicle depart="169.00" departSpeed="max" id="38" speedFactor="1.1">
        <route edges="top3D3 D3C3 C3B3 B3A3 A3left3" />
    </vehicle>
    <vehicle depart="173.00" departSpeed="max" id="39" speedFactor="1.0">
        <route edges="top1B3 B3B2 B2B1 B1B0 B0A0 A0left0" />
    </vehicle>
    <vehicle depart="175.00" departSpeed="max" id="40" speedFactor="1.0">
        <route edges="right0D0 D0C0 C0B0 B0bottom1" />
    </vehicle>
    <vehicle depart="176.00" departSpeed="max" id="41" speedFactor="1.0">
        <route edges="right1D1 D1C1 C1B1 B1A1 A1A2 A2A3 A3left3" />
    </vehicle>
    <vehicle depart="178.00" departSpeed="max" id="42" speedFactor="1.0">
        <route edges="left0A0 A0B0 B0C0 C0D0 D0bottom3" />
    </vehicle>
    <vehicle depart="186.00" departSpeed="max" id="43" speedFactor="1.0">
        <route edges="top0A3 A3left3" />
    </vehicle>
    <vehicle depart="197.00" departSpeed="max" id="44" speedFactor="1.0">
        <route edges="left1A1 A1A2 A2left2" />
    </vehicle>
    <vehicle depart="204.00" departSpeed="max" id="45" speedFactor="1.0">
        <route edges="bottom1B0 B0B1 B1C1 C1C0 C0B0 B0bottom1" />
    </vehicle>
    <vehicle depart="211.00" departSpeed="max" id="46" speedFactor="0.8">
        <route edges="bottom1B0 B0C0 C0C1 C1C2 C2C3 C3top2" />
    </vehicle>
    <vehicle depart="212.00" departSpeed="max" id="47" speedFactor="1.0">
        <route edges="right3D3 D3C3 C3B3 B3B2 B2B1 B1B0 B0bottom1" />
    </vehicle>
    <vehicle depart="218.00" departSpeed="max" id="48" speedFactor="1.0">
        <route edges="top2C3 C3C2 C2D2 D2D1 D1D0 D0bottom3" />
    </vehicle>
    <vehicle depart="220.00" departSpeed="max" id="49" speedFactor="1.1">
        <route edges="top1B3 B3A3 A3left3" />
    </vehicle>
    <vehicle depart="222.00" departSpeed="max" id="50" speedFactor="0.8">
        <route edges="top2C3 C3C2 C2B2 B2B3 B3C3 C3top2" />
    </vehicle>
    <vehicle depart="228.00" departSpeed="max" id="51" speedFactor="1.0">
        <route edges="top0A3 A3A2 A2A1 A1left1" />
    </vehicle>
    <vehicle depart="229.00" departSpeed="max" id="52" speedFactor="1.0">
        <route edges="right1D1 D1C1 C1C0 C0bottom2" />
    </vehicle>
    <vehicle depart="231.00" departSpeed="max" id="53" speedFactor="1.1">
        <route edges="top1B3 B3B2 B2C2 C2C1 C1C0 C0bottom2" />
    </vehicle>
    <vehicle depart="236.00" departSpeed="max" id="54" speedFactor="1.1">
        <route edges="bottom0A0 A0B0 B0bottom1" />
    </vehicle>
    <vehicle depart="257.00" departSpeed="max" id="55" speedFactor="1.1">
        <route edges="left3A3 A3B3 B3C3 C3top2" />
    </vehicle>
    <vehicle depart="259.00" departSpeed="max" id="56" speedFactor="1.0">
        <route edges="left0A0 A0A1 A1A2 A2A3 A3left3" />
    </vehicle>
    <vehicle depart="268.00" departSpeed="max" id="57" speedFactor="1.1">
        <route edges="bottom3D0 D0C0 C0bottom2" />
    </vehicle>
    <vehicle depart="275.00" departSpeed="max" id="58" speedFactor="1.0">
        <route edges="bottom3D0 D0C0 C0B0 B0bottom1" />
    </vehicle>
    <vehicle depart="276.00" departSpeed="max" id="59" speedFactor="1.0">
        <route edges="top2C3 C3D3 D3right3" />
    </vehicle>
    <vehicle depart="278.00" departSpeed="max" id="60" speedFactor="0.9000000000000001">
        <route edges="right3D3 D3C3 C3top2" />
    </vehicle>
    <vehicle depart="279.00" departSpeed="max" id="61" speedFactor="1.0">
        <route edges="top3D3 D3C3 C3B3 B3A3 A3left3" />
    </vehicle>
    <vehicle depart="283.00" departSpeed="max" id="62" speedFactor="1.0">
        <route edges="right3D3 D3D2 D2D1 D1right1" />
    </vehicle>
    <vehicle depart="285.00" departSpeed="max" id="63" speedFactor="1.1">
        <route edges="right3D3 D3D2 D2D1 D1D0 D0right0" />
    </vehicle>
    <vehicle depart="286.00" departSpeed="max" id="64" speedFactor="1.0">
        <route edges="left0A0 A0A1 A1A2 A2left2" />
    </vehicle>
    <vehicle depart="294.00" departSpeed="max" id="65" speedFactor="0.8">
        <route edges="left2A2 A2B2 B2C2 C2C1 C1C0 C0bottom2" />
    </vehicle>
    <vehicle depart="297.00" departSpeed="max" id="66" speedFactor="1.0">
        <route edges="bottom0A0 A0A1 A1left1" />
    </vehicle>
    <vehicle depart="302.00" departSpeed="max" id="67" speedFactor="1.0">
        <route edges="top3D3 D3C3 C3B3 B3A3 A3left3" />
    </vehicle>
    <vehicle depart="307.00" departSpeed="max" id="68" speedFactor="1.0">
        <route edges="bottom2C0 C0D0 D0bottom3" />
    </vehicle>
    <vehicle depart="310.00" departSpeed="max" id="69" speedFactor="1.0">
        <route edges="right1D1 D1C1 C1B1 B1A1 A1A0 A0bottom0" />
    </vehicle>
    <vehicle depart="320.00" departSpeed="max" id="70" speedFactor="0.8">
        <route edges="right1D1 D1C1 C1B1 B1B2 B2B3 B3top1" />
    </vehicle>
    <vehicle depart="324.00" departSpeed="max" id="71" speedFactor="1.0">
        <route edges="bottom0A0 A0A1 A1left1" />
    </vehicle>
    <vehicle depart="327.00" departSpeed="max" id="72" speedFactor="1.0">
        <route edges="left2A2 A2B2 B2C2 C2D2 D2D3 D3top3" />
    </vehicle>
    <vehicle depart="329.00" departSpeed="max" id="73" speedFactor="1.0">
        <route edges="bottom3D0 D0C0 C0C1 C1D1 D1D0 D0bottom3" />
    </vehicle>
    <vehicle depart="330.00" departSpeed="max" id="74" speedFactor="1.0">
        <route edges="top0A3 A3B3 B3C3 C3D3 D3right3" />
    </vehicle>
    <vehicle depart="349.00" departSpeed="max" id="75" speedFactor="1.1">
        <route edges="top0A3 A3A2 A2A1 A1A0 A0left0" />
    </vehicle>
    <vehicle depart="359.00" departSpeed="max" id="76" speedFactor="0.9000000000000001">
        <route edges="bottom0A0 A0A1 A1B1 B1C1 C1D1 D1right1" />
    </vehicle>
    <vehicle depart="377.00" departSpeed="max" id="77" speedFactor="0.8">
        <route edges="right0D0 D0D1 D1D2 D2D3 D3top3" />
    </vehicle>
    <vehicle depart="379.00" departSpeed="max" id="78" speedFactor="1.0">
        <route edges="left0A0 A0A1 A1A2 A2left2" />
    </vehicle>
    <vehicle depart="380.00" departSpeed="max" id="79" speedFactor="1.0">
        <route edges="right0D0 D0D1 D1C1 C1B1 B1A1 A1left1" />
    </vehicle>
    <vehicle depart="388.00" departSpeed="max" id="80" speedFactor="1.0">
        <route edges="top1B3 B3C3 C3top2" />
    </vehicle>
    <vehicle depart="391.00" departSpeed="max" id="81" speedFactor="1.1">
        <route edges="right0D0 D0C0 C0B0 B0bottom1" />
    </vehicle>
    <vehicle depart="397.00" departSpeed="max" id="82" speedFactor="1.0">
        <route edges="top0A3 A3A2 A2A1 A1B1 B1C1 C1D1 D1right1" />
    </vehicle>
    <vehicle depart="400.00" departSpeed="max" id="83" speedFactor="1.0">
        <route edges="top0A3 A3A2 A2B2 B2C2 C2D2 D2right2" />
    </vehicle>
    <vehicle depart="402.00" departSpeed="max" id="84" speedFactor="1.0">
        <route edges="bottom3D0 D0D1 D1D2 D2D3 D3top3" />
    </vehicle>
    <vehicle depart="406.00" departSpeed="max" id="85" speedFactor="1.0">
        <route edges="left3A3 A3A2 A2A1 A1A0 A0bottom0" />
    </vehicle>
    <vehicle depart="407.00" departSpeed="max" id="86" speedFactor="1.0">
        <route edges="right1D1 D1C1 C1C2 C2D2 D2D1 D1right1" />
    </vehicle>
    <vehicle depart="408.00" departSpeed="max" id="87" speedFactor="1.0">
        <route edges="bottom1B0 B0C0 C0bottom2" />
    </vehicle>
    <vehicle depart="409.00" departSpeed="max" id="88" speedFactor="1.0">
        <route edges="left0A0 A0A1 A1A2 A2A3 A3top0" />
    </vehicle>
    <vehicle depart="419.00" departSpeed="max" id="89" speedFactor="0.8">
        <route edges="left3A3 A3A2 A2A1 A1left1" />
    </vehicle>
    <vehicle depart="421.00" departSpeed="max" id="90" speedFactor="1.0">
        <route edges="left3A3 A3B3 B3top1" />
    </vehicle>
    <vehicle depart="423.00" departSpeed="max" id="91" speedFactor="1.1">
        <route edges="right0D0 D0D1 D1D2 D2D3 D3top3" />
    </vehicle>
    <vehicle depart="426.00" departSpeed="max" id="92" speedFactor="1.1">
        <route edges="left1A1 A1A0 A0bottom0" />
    </vehicle>
    <vehicle depart="428.00" departSpeed="max" id="93" speedFactor="1.0">
        <route edges="left0A0 A0B0 B0B1 B1C1 C1D1 D1right1" />
    </vehicle>
    <vehicle depart="430.00" departSpeed="max" id="94" speedFactor="1.0">
        <route edges="right0D0 D0D1 D1right1" />
    </vehicle>
    <vehicle depart="431.00" departSpeed="max" id="95" speedFactor="1.1">
        <route edges="bottom1B0 B0B1 B1B2 B2B3 B3C3 C3D3 D3right3" />
    </vehicle>
    <vehicle depart="436.00" departSpeed="max" id="96" speedFactor="1.0">
        <route edges="left1A1 A1B1 B1B2 B2C2 C2D2 D2right2" />
    </vehicle>
    <vehicle depart="442.00" departSpeed="max" id="97" speedFactor="1.0">
        <route edges="top1B3 B3A3 A3left3" />
    </vehicle>
    <vehicle depart="442.00" departSpeed="max" id="98" speedFactor="0.8">
        <route edges="bottom3D0 D0C0 C0B0 B0bottom1" />
    </vehicle>
    <vehicle depart="443.00" departSpeed="max" id="99" speedFactor="1.0">
        <route edges="top1B3 B3B2 B2B1 B1B0 B0A0 A0left0" />
    </vehicle>
    <vehicle depart="452.00" departSpeed="max" id="100" speedFactor="1.0">
        <route edges="top3D3 D3right3" />
    </vehicle>
    <vehicle depart="453.00" departSpeed="max" id="101" speedFactor="1.1">
        <route edges="top3D3 D3D2 D2D1 D1D0 D0right0" />
    </vehicle>
    <vehicle depart="465.00" departSpeed="max" id="102" speedFactor="1.0">
        <route edges="right0D0 D0C0 C0B0 B0A0 A0bottom0" />
    </vehicle>
    <vehicle depart="466.00" departSpeed="max" id="103" speedFactor="1.1">
        <route edges="right0D0 D0C0 C0B0 B0B1 B1B2 B2B3 B3top1" />
    </vehicle>
    <vehicle depart="466.00" departSpeed="max" id="104" speedFactor="1.0">
        <route edges="top0A3 A3A2 A2left2" />
    </vehicle>
    <vehicle depart="467.00" departSpeed="max" id="105" speedFactor="0.8">
        <route edges="bottom0A0 A0A1 A1A2 A2A3 A3B3 B3C3 C3D3 D3top3" />
    </vehicle>
    <vehicle depart="470.00" departSpeed="max" id="106" speedFactor="1.0">
        <route edges="top3D3 D3D2 D2C2 C2B2 B2A2 A2left2" />
    </vehicle>
    <vehicle depart="472.00" departSpeed="max" id="107" speedFactor="1.0">
        <route edges="top3D3 D3C3 C3B3 B3A3 A3left3" />
    </vehicle>
    <vehicle depart="473.00" departSpeed="max" id="108" speedFactor="0.8">
        <route edges="top0A3 A3A2 A2A1 A1left1" />
    </vehicle>
    <vehicle depart="474.00" departSpeed="max" id="109" speedFactor="1.0">
        <route edges="right2D2 D2D3 D3C3 C3B3 B3A3 A3left3" />
    </vehicle>
    <vehicle depart="482.00" departSpeed="max" id="110" speedFactor="1.0">
        <route edges="left1A1 A1A0 A0bottom0" />
    </vehicle>
    <vehicle depart="487.00" departSpeed="max" id="111" speedFactor="1.0">
        <route edges="left1A1 A1B1 B1C1 C1D1 D1D2 D2D3 D3top3" />
    </vehicle>
    <vehicle depart="487.00" departSpeed="max" id="112" speedFactor="1.0">
        <route edges="left2A2 A2A1 A1left1" />
    </vehicle>
    <vehicle depart="490.00" departSpeed="max" id="113" speedFactor="1.1">
        <route edges="top1B3 B3B2 B2B1 B1C1 C1D1 D1right1" />
    </vehicle>
    <vehicle depart="494.00" departSpeed="max" id="114" speedFactor="1.1">
        <route edges="left3A3 A3B3 B3B2 B2A2 A2A3 A3left3" />
    </vehicle>
    <vehicle depart="502.00" departSpeed="max" id="115" speedFactor="1.0">
        <route edges="right3D3 D3C3 C3C2 C2C1 C1B1 B1A1 A1left1" />
    </vehicle>
    <vehicle depart="503.00" departSpeed="max" id="116" speedFactor="1.0">
        <route edges="right0D0 D0C0 C0bottom2" />
    </vehicle>
    <vehicle depart="507.00" departSpeed="max" id="117" speedFactor="1.0">
        <route edges="top0A3 A3B3 B3C3 C3D3 D3right3" />
    </vehicle>
    <vehicle depart="514.00" departSpeed="max" id="118" speedFactor="1.0">
        <route edges="left1A1 A1B1 B1B0 B0bottom1" />
    </vehicle>
    <vehicle depart="525.00" departSpeed="max" id="119" speedFactor="1.0">
        <route edges="right2D2 D2C2 C2B2 B2A2 A2A1 A1A0 A0bottom0" />
    </vehicle>
    <vehicle depart="526.00" departSpeed="max" id="120" speedFactor="1.1">
        <route edges="left2A2 A2B2 B2C2 C2D2 D2D3 D3top3" />
    </vehicle>
    <vehicle depart="531.00" departSpeed="max" id="121" speedFactor="1.0">
        <route edges="right3D3 D3C3 C3C2 C2C1 C1C0 C0bottom2" />
    </vehicle>
    <vehicle depart="534.00" departSpeed="max" id="122" speedFactor="1.0">
        <route edges="right0D0 D0C0 C0C1 C1D1 D1D0 D0right0" />
    </vehicle>
    <vehicle depart="534.00" departSpeed="max" id="123" speedFactor="1.0">
        <route edges="left3A3 A3B3 B3top1" />
    </vehicle>
    <vehicle depart="538.00" departSpeed="max" id="124" speedFactor="1.0">
        <route edges="right3D3 D3C3 C3C2 C2B2 B2A2 A2left2" />
    </vehicle>
    <vehicle depart="546.00" departSpeed="max" id="125" speedFactor="1.0">
        <route edges="left2A2 A2B2 B2C2 C2D2 D2D3 D3top3" />
    </vehicle>
    <vehicle depart="546.00" departSpeed="max" id="126" speedFactor="1.0">
        <route edges="left0A0 A0B0 B0B1 B1B2 B2B3 B3top1" />
    </vehicle>
    <vehicle depart="548.00" departSpeed="max" id="127" speedFactor="1.0">
        <route edges="right1D1 D1D0 D0bottom3" />
    </vehicle>
    <vehicle depart="549.00" departSpeed="max" id="128" speedFactor="1.0">
        <route edges="bottom3D0 D0D1 D1D2 D2D3 D3C3 C3B3 B3A3 A3left3" />
    </vehicle>
    <vehicle depart="552.00" departSpeed="max" id="129" speedFactor="1.0">
        <route edges="right2D2 D2C2 C2C3 C3top2" />
    </vehicle>
    <vehicle depart="555.00" departSpeed="max" id="130" speedFactor="1.0">
        <route edges="left0A0 A0B0 B0bottom1" />
    </vehicle>
    <vehicle depart="564.00" departSpeed="max" id="131" speedFactor="1.0">
        <route edges="left0A0 A0A1 A1left1" />
    </vehicle>
    <vehicle depart="565.00" departSpeed="max" id="132" speedFactor="1.0">
        <route edges="left0A0 A0B0 B0C0 C0D0 D0right0" />
    </vehicle>
    <vehicle depart="570.00" departSpeed="max" id="133" speedFactor="1.0">
        <route edges="top0A3 A3A2 A2A1 A1B1 B1C1 C1D1 D1right1" />
    </vehicle>
    <vehicle depart="572.00" departSpeed="max" id="134" speedFactor="1.0">
        <route edges="bottom2C0 C0B0 B0bottom1" />
    </vehicle>
    <vehicle depart="579.00" departSpeed="max" id="135" speedFactor="1.0">
        <route edges="bottom0A0 A0A1 A1A2 A2A3 A3top0" />
    </vehicle>
    <vehicle depart="580.00" departSpeed="max" id="136" speedFactor="1.0">
        <route edges="top1B3 B3B2 B2B1 B1B0 B0A0 A0left0" />
    </vehicle>
    <vehicle depart="581.00" departSpeed="max" id="137" speedFactor="1.1">
        <route edges="right1D1 D1D0 D0bottom3" />
    </vehicle>
    <vehicle depart="582.00" departSpeed="max" id="138" speedFactor="1.0">
        <route edges="right0D0 D0D1 D1C1 C1B1 B1A1 A1left1" />
    </vehicle>
    <vehicle depart="583.00" departSpeed="max" id="139" speedFactor="1.0">
        <route edges="right2D2 D2C2 C2B2 B2B1 B1B0 B0bottom1" />
    </vehicle>
    <vehicle depart="590.00" departSpeed="max" id="140" speedFactor="1.1">
        <route edges="left1A1 A1B1 B1B0 B0A0 A0A1 A1left1" />
    </vehicle>
    <vehicle depart="601.00" departSpeed="max" id="141" speedFactor="1.0">
        <route edges="bottom0A0 A0left0" />
    </vehicle>
    <vehicle depart="603.00" departSpeed="max" id="142" speedFactor="1.0">
        <route edges="right1D1 D1C1 C1C0 C0bottom2" />
    </vehicle>
    <vehicle depart="603.00" departSpeed="max" id="143" speedFactor="1.0">
        <route edges="right3D3 D3D2 D2D1 D1right1" />
    </vehicle>
    <vehicle depart="611.00" departSpeed="max" id="144" speedFactor="1.0">
        <route edges="bottom1B0 B0C0 C0D0 D0right0" />
    </vehicle>
    <vehicle depart="616.00" departSpeed="max" id="145" speedFactor="1.0">
        <route edges="left0A0 A0B0 B0C0 C0D0 D0D1 D1D2 D2D3 D3top3" />
    </vehicle>
    <vehicle depart="619.00" departSpeed="max" id="146" speedFactor="1.1">
        <route edges="right0D0 D0C0 C0B0 B0A0 A0A1 A1A2 A2A3 A3left3" />
    </vehicle>
    <vehicle depart="621.00" departSpeed="max" id="147" speedFactor="1.1">
        <route edges="bottom0A0 A0B0 B0C0 C0D0 D0bottom3" />
    </vehicle>
    <vehicle depart="622.00" departSpeed="max" id="148" speedFactor="1.0">
        <route edges="top1B3 B3B2 B2B1 B1C1 C1D1 D1right1" />
    </vehicle>
    <vehicle depart="637.00" departSpeed="max" id="149" speedFactor="0.8">
        <route edges="left0A0 A0B0 B0C0 C0D0 D0right0" />
    </vehicle>
    <vehicle depart="637.00" departSpeed="max" id="150" speedFactor="1.0">
        <route edges="left2A2 A2B2 B2B3 B3top1" />
    </vehicle>
    <vehicle depart="639.00" departSpeed="max" id="151" speedFactor="1.0">
        <route edges="right3D3 D3C3 C3C2 C2B2 B2A2 A2left2" />
    </vehicle>
    <vehicle depart="644.00" departSpeed="max" id="152" speedFactor="1.1">
        <route edges="right2D2 D2C2 C2B2 B2A2 A2left2" />
    </vehicle>
    <vehicle depart="647.00" departSpeed="max" id="153" speedFactor="1.0">
        <route edges="bottom0A0 A0A1 A1left1" />
    </vehicle>
    <vehicle depart="651.00" departSpeed="max" id="154" speedFactor="1.0">
        <route edges="bottom2C0 C0C1 C1D1 D1right1" />
    </vehicle>
    <vehicle depart="656.00" departSpeed="max" id="155" speedFactor="1.0">
        <route edges="left3A3 A3B3 B3B2 B2A2 A2A3 A3left3" />
    </vehicle>
    <vehicle depart="663.00" departSpeed="max" id="156" speedFactor="1.1">
        <route edges="right0D0 D0C0 C0bottom2" />
    </vehicle>
    <vehicle depart="665.00" departSpeed="max" id="157" speedFactor="0.8">
        <route edges="top3D3 D3D2 D2C2 C2B2 B2A2 A2left2" />
    </vehicle>
    <vehicle depart="667.00" departSpeed="max" id="158" speedFactor="1.0">
        <route edges="bottom1B0 B0B1 B1B2 B2B3 B3C3 C3D3 D3top3" />
    </vehicle>
    <vehicle depart="672.00" departSpeed="max" id="159" speedFactor="1.1">
        <route edges="top2C3 C3D3 D3top3" />
    </vehicle>
    <vehicle depart="680.00" departSpeed="max" id="160" speedFactor="1.0">
        <route edges="left3A3 A3B3 B3B2 B2B1 B1B0 B0bottom1" />
    </vehicle>
    <vehicle depart="683.00" departSpeed="max" id="161" speedFactor="1.0">
        <route edges="left0A0 A0A1 A1A2 A2A3 A3left3" />
    </vehicle>
    <vehicle depart="694.00" departSpeed="max" id="162" speedFactor="1.1">
        <route edges="right3D3 D3C3 C3B3 B3A3 A3A2 A2A1 A1A0 A0bottom0" />
    </vehicle>
    <vehicle depart="694.00" departSpeed="max" id="163" speedFactor="1.0">
        <route edges="left3A3 A3A2 A2A1 A1A0 A0left0" />
    </vehicle>
    <vehicle depart="705.00" departSpeed="max" id="164" speedFactor="1.0">
        <route edges="bottom2C0 C0C1 C1C2 C2B2 B2A2 A2left2" />
    </vehicle>
    <vehicle depart="706.00" departSpeed="max" id="165" speedFactor="1.0">
        <route edges="right3D3 D3C3 C3B3 B3A3 A3top0" />
    </vehicle>
    <vehicle depart="728.00" departSpeed="max" id="166" speedFactor="1.1">
        <route edges="top1B3 B3B2 B2C2 C2C1 C1C0 C0bottom2" />
    </vehicle>
    <vehicle depart="730.00" departSpeed="max" id="167" speedFactor="1.0">
        <route edges="top2C3 C3C2 C2C1 C1D1 D1right1" />
    </vehicle>
    <vehicle depart="733.00" departSpeed="max" id="168" speedFactor="1.0">
        <route edges="left2A2 A2B2 B2C2 C2D2 D2D1 D1D0 D0bottom3" />
    </vehicle>
    <vehicle depart="736.00" departSpeed="max" id="169" speedFactor="1.1">
        <route edges="left3A3 A3B3 B3C3 C3D3 D3D2 D2D1 D1right1" />
    </vehicle>
    <vehicle depart="737.00" departSpeed="max" id="170" speedFactor="1.0">
        <route edges="right1D1 D1C1 C1B1 B1A1 A1left1" />
    </vehicle>
    <vehicle depart="741.00" departSpeed="max" id="171" speedFactor="1.0">
        <route edges="left2A2 A2A3 A3left3" />
    </vehicle>
    <vehicle depart="745.00" departSpeed="max" id="172" speedFactor="1.0">
        <route edges="right1D1 D1C1 C1B1 B1A1 A1A2 A2A3 A3top0" />
    </vehicle>
    <vehicle depart="747.00" departSpeed="max" id="173" speedFactor="1.0">
        <route edges="left0A0 A0A1 A1A2 A2A3 A3left3" />
    </vehicle>
    <vehicle depart="751.00" departSpeed="max" id="174" speedFactor="1.0">
        <route edges="right1D1 D1C1 C1B1 B1A1 A1A2 A2A3 A3left3" />
    </vehicle>
    <vehicle depart="754.00" departSpeed="max" id="175" speedFactor="0.8">
        <route edges="bottom2C0 C0C1 C1C2 C2D2 D2right2" />
    </vehicle>
    <vehicle depart="755.00" departSpeed="max" id="176" speedFactor="1.0">
        <route edges="bottom2C0 C0C1 C1C2 C2C3 C3D3 D3right3" />
    </vehicle>
    <vehicle depart="755.00" departSpeed="max" id="177" speedFactor="1.1">
        <route edges="left1A1 A1A0 A0bottom0" />
    </vehicle>
    <vehicle depart="759.00" departSpeed="max" id="178" speedFactor="1.0">
        <route edges="top3D3 D3C3 C3B3 B3A3 A3left3" />
    </vehicle>
    <vehicle depart="760.00" departSpeed="max" id="179" speedFactor="1.0">
        <route edges="left2A2 A2A3 A3left3" />
    </vehicle>
    <vehicle depart="762.00" departSpeed="max" id="180" speedFactor="1.0">
        <route edges="top2C3 C3B3 B3A3 A3top0" />
    </vehicle>
    <vehicle depart="766.00" departSpeed="max" id="181" speedFactor="1.0">
        <route edges="bottom0A0 A0B0 B0bottom1" />
    </vehicle>
    <vehicle depart="766.00" departSpeed="max" id="182" speedFactor="1.0">
        <route edges="bottom3D0 D0C0 C0B0 B0A0 A0left0" />
    </vehicle>
    <vehicle depart="773.00" departSpeed="max" id="183" speedFactor="1.0">
        <route edges="bottom2C0 C0C1 C1C2 C2D2 D2right2" />
    </vehicle>
    <vehicle depart="773.00" departSpeed="max" id="184" speedFactor="1.0">
        <route edges="top0A3 A3A2 A2B2 B2C2 C2C1 C1C0 C0bottom2" />
    </vehicle>
    <vehicle depart="775.00" departSpeed="max" id="185" speedFactor="1.0">
        <route edges="right3D3 D3C3 C3C2 C2C1 C1B1 B1A1 A1left1" />
    </vehicle>
    <vehicle depart="782.00" departSpeed="max" id="186" speedFactor="1.1">
        <route edges="left1A1 A1A0 A0bottom0" />
    </vehicle>
    <vehicle depart="792.00" departSpeed="max" id="187" speedFactor="1.1">
        <route edges="bottom3D0 D0D1 D1C1 C1B1 B1B2 B2B3 B3top1" />
    </vehicle>
    <vehicle depart="793.00" departSpeed="max" id="188" speedFactor="1.0">
        <route edges="left1A1 A1B1 B1C1 C1D1 D1D0 D0bottom3" />
    </vehicle>
    <vehicle depart="794.00" departSpeed="max" id="189" speedFactor="1.0">
        <route edges="left0A0 A0A1 A1A2 A2left2" />
    </vehicle>
    <vehicle depart="801.00" departSpeed="max" id="190" speedFactor="1.0">
        <route edges="top1B3 B3B2 B2B1 B1B0 B0C0 C0D0 D0right0" />
    </vehicle>
    <vehicle depart="802.00" departSpeed="max" id="191" speedFactor="1.1">
        <route edges="left3A3 A3B3 B3B2 B2A2 A2A3 A3left3" />
    </vehicle>
    <vehicle depart="803.00" departSpeed="max" id="192" speedFactor="1.0">
        <route edges="bottom0A0 A0A1 A1A2 A2A3 A3B3 B3C3 C3D3 D3right3" />
    </vehicle>
    <vehicle depart="806.00" departSpeed="max" id="193" speedFactor="1.0">
        <route edges="right2D2 D2C2 C2C3 C3top2" />
    </vehicle>
    <vehicle depart="807.00" departSpeed="max" id="194" speedFactor="1.0">
        <route edges="right2D2 D2D1 D1right1" />
    </vehicle>
    <vehicle depart="808.00" departSpeed="max" id="195" speedFactor="1.0">
        <route edges="right3D3 D3C3 C3C2 C2C1 C1C0 C0bottom2" />
    </vehicle>
    <vehicle depart="818.00" departSpeed="max" id="196" speedFactor="1.0">
        <route edges="bottom0A0 A0A1 A1A2 A2A3 A3top0" />
    </vehicle>
    <vehicle depart="818.00" departSpeed="max" id="197" speedFactor="1.0">
        <route edges="top2C3 C3C2 C2C1 C1C0 C0bottom2" />
    </vehicle>
    <vehicle depart="819.00" departSpeed="max" id="198" speedFactor="1.0">
        <route edges="right2D2 D2D3 D3C3 C3B3 B3A3 A3left3" />
    </vehicle>
    <vehicle depart="819.00" departSpeed="max" id="199" speedFactor="1.0">
        <route edges="bottom3D0 D0D1 D1C1 C1B1 B1A1 A1A2 A2A3 A3top0" />
    </vehicle>
    <vehicle depart="824.00" departSpeed="max" id="200" speedFactor="1.0">
        <route edges="left2A2 A2B2 B2B1 B1B0 B0bottom1" />
    </vehicle>
    <vehicle depart="829.00" departSpeed="max" id="201" speedFactor="1.0">
        <route edges="bottom0A0 A0A1 A1left1" />
    </vehicle>