<routes xmlns:xsi="http://www.w3.org/2001/XMLSchema-instance" xsi:noNamespaceSchemaLocation="http://sumo.dlr.de/xsd/routes_file.xsd">
	<vType color="green" id="bus" vClass="bus" />
	<vType color="red" id="default_017" vClass="passenger" />
    <vType color="blue" id="random_017" vClass="passenger" />
	<vType color="red" id="default_016" vClass="passenger" />
    <vType color="blue" id="random_016" vClass="passenger" />
	<vType color="red" id="default_015" vClass="passenger" />
    <vType color="blue" id="random_015" vClass="passenger" />
	<vType color="red" id="default_014" vClass="passenger" />
    <vType color="blue" id="random_014" vClass="passenger" />
	<vType color="red" id="default_013" vClass="passenger" />
    <vType color="blue" id="random_013" vClass="passenger" />
    <vType color="red" id="default_012" vClass="passenger" />
    <vType color="blue" id="random_012" vClass="passenger" />
	<vType color="red" id="default_011" vClass="passenger" />
    <vType color="blue" id="random_011" vClass="passenger" />
	<vType color="red" id="default_010" vClass="passenger" />
    <vType color="blue" id="random_010" vClass="passenger" />
	<vType color="red" id="default_009" vClass="passenger" />
    <vType color="blue" id="random_009" vClass="passenger" />
	<vType color="red" id="default_008" vClass="passenger" />
    <vType color="blue" id="random_008" vClass="passenger" />
	<vType color="red" id="default_007" vClass="passenger" />
    <vType color="blue" id="random_007" vClass="passenger" />
	<vType color="red" id="default_006" vClass="passenger" />
    <vType color="blue" id="random_006" vClass="passenger" />
	<vType color="red" id="default_005" vClass="passenger" />
    <vType color="blue" id="random_005" vClass="passenger" />
	<vType color="red" id="default_004" vClass="passenger" />
    <vType color="blue" id="random_004" vClass="passenger" />
	<vType color="red" id="default_003" vClass="passenger" />
    <vType color="blue" id="random_003" vClass="passenger" />
	<vType color="red" id="default_022" vClass="passenger" />
    <vType color="blue" id="random_022" vClass="passenger" />
	<vType color="red" id="default_021" vClass="passenger" />
    <vType color="blue" id="random_021" vClass="passenger" />
	<vType color="red" id="default_020" vClass="passenger" />
    <vType color="blue" id="random_020" vClass="passenger" />
	<vType color="red" id="default_019" vClass="passenger" />
    <vType color="blue" id="random_019" vClass="passenger" />
	<vType color="red" id="default_018" vClass="passenger" />
    <vType color="blue" id="random_018" vClass="passenger" />
	<vType color="red" id="default_002" vClass="passenger" />
    <vType color="blue" id="random_002" vClass="passenger" />
	<vType color="red" id="default_001" vClass="passenger" />
    <vType color="blue" id="random_001" vClass="passenger" />
	<trip depart="57600.00" departSpeed="max" from="201089423#0" id="h2831c1:1" speedFactor="1.0" to="-315358244" type="default_016" />
	<trip depart="57600.30" departSpeed="max" from="124812856#0" id="carIn107084:1" speedFactor="1.0" to="-128361102#1" type="default_016" />
	<trip depart="57602.60" departSpeed="max" from="128361109#1" id="carIn80064:1" speedFactor="1.0" to="-315358254#1" type="default_016" />
	<trip depart="57604.80" departSpeed="max" from="124812856#0" id="randUni10474:1" speedFactor="1.1" to="306240162#0" type="random_016" />
	<trip depart="57605.10" departSpeed="max" from="315358254#0" id="carIn60260:1" speedFactor="1.0" to="399835085#1" type="default_016" />
	<trip depart="57605.20" departSpeed="max" from="315358244" id="randUni14624:1" speedFactor="1.0" to="-25149001#4" type="random_016" />
	<trip depart="57605.50" departSpeed="max" from="124812856#0" id="carIn77943:1" speedFactor="1.0" to="-128361102#1" type="default_016" />
	<trip depart="57605.80" departSpeed="max" from="10425609#0" id="carIn28951:1" speedFactor="1.1" to="-128361102#1" type="default_016" />
	<trip depart="57608.50" departSpeed="max" from="124812856#0" id="carIn81046:1" speedFactor="1.0" to="-128361102#1" type="default_016" />
	<trip depart="57611.50" departSpeed="max" from="24608844" id="h15454c2:3" speedFactor="1.0" to="32978638#0" type="default_016" />
	<trip depart="57611.60" departSpeed="max" from="315358244" id="h12244c1:3" speedFactor="1.0" to="386687235" type="default_016" />
	<trip depart="57611.60" departSpeed="max" from="315358250#0" id="S5R_frequency1.2" speedFactor="1.0" to="386687235" type="bus" />
	<trip depart="57612.30" departSpeed="max" from="-306240162#1" id="carIn48184:1" speedFactor="1.0" to="386687235" type="default_016" />
	<trip depart="57612.90" departSpeed="max" from="124812856#0" id="carIn77438:1" speedFactor="1.1" to="-128361102#1" type="default_016" />
	<trip depart="57613.90" departSpeed="max" from="-306240162#1" id="carIn22761:1" speedFactor="1.1" to="399835085#1" type="default_016" />
	<trip depart="57615.50" departSpeed="max" from="124812856#0" id="h19804c1:3" speedFactor="1.1" to="-128361102#1" type="default_016" />
	<trip depart="57615.50" departSpeed="max" from="-306240162#1" id="carIn82220:1" speedFactor="0.8" to="386687235" type="default_016" />
	<trip depart="57616.20" departSpeed="max" from="128361102#0" id="carIn86816:1" speedFactor="1.0" to="201956811#0" type="default_016" />
	<trip depart="57617.20" departSpeed="max" from="-306240162#1" id="carIn462:1" speedFactor="1.1" to="386687235" type="default_016" />
	<trip depart="57618.50" departSpeed="max" from="124812856#0" id="carIn767:1" speedFactor="1.1" to="306240162#0" type="default_016" />
	<trip depart="57621.10" departSpeed="max" from="124812856#0" id="carIn107842:1" speedFactor="1.1" to="-128361102#1" type="default_016" />
	<trip depart="57621.60" departSpeed="max" from="266565295#5" id="h645c1:1" speedFactor="1.1" to="-315358244" type="default_016" />
	<trip depart="57622.20" departSpeed="max" from="124812856#0" id="h15382c1:3" speedFactor="1.0" to="-128361102#1" type="default_016" />
	<trip depart="57623.70" departSpeed="max" from="124812856#0" id="carIn3969:1" speedFactor="1.0" to="-128361102#1" type="default_016" />
	<trip depart="57623.90" departSpeed="max" from="124812856#0" id="carIn56649:1" speedFactor="1.0" to="-128361102#1" type="default_016" />
	<trip depart="57625.00" departSpeed="max" from="201201950#1" id="h3688c1:1" speedFactor="0.9000000000000001" to="32978638#0" type="default_016" />
	<trip depart="57625.50" departSpeed="max" from="124812856#0" id="carIn38625:1" speedFactor="1.0" to="306240162#0" type="default_016" />
	<trip depart="57626.90" departSpeed="max" from="-306240162#1" id="carIn116184:1" speedFactor="1.0" to="386687235" type="default_016" />
	<trip depart="57627.20" departSpeed="max" from="124812856#0" id="carIn17767:1" speedFactor="1.1" to="-128361102#1" type="default_016" />
	<trip depart="57628.40" departSpeed="max" from="124812856#0" id="carIn64859:1" speedFactor="1.0" to="306240162#0" type="default_016" />
	<trip depart="57628.40" departSpeed="max" from="-306240162#1" id="carIn31257:1" speedFactor="1.0" to="386687235" type="default_016" />
	<trip depart="57628.90" departSpeed="max" from="124812856#0" id="carIn48979:1" speedFactor="1.0" to="306240162#0" type="default_016" />
	<trip depart="57630.30" departSpeed="max" from="315358244" id="h9563c2:5" speedFactor="1.0" to="386687235" type="default_016" />
	<trip depart="57630.60" departSpeed="max" from="124812856#0" id="carIn88932:1" speedFactor="1.0" to="-128361102#1" type="default_016" />
	<trip depart="57630.70" departSpeed="max" from="124812856#0" id="h15353c2:1" speedFactor="1.0" to="306240162#0" type="default_016" />
	<trip depart="57631.00" departSpeed="max" from="201201953#4" id="h5170c2:1" speedFactor="1.1" to="-266565295#5" type="default_016" />
	<trip depart="57632.30" departSpeed="max" from="124812856#0" id="carIn44740:1" speedFactor="0.9000000000000001" to="-128361102#1" type="default_016" />
	<trip depart="57633.00" departSpeed="max" from="124812856#0" id="randUni29093:1" speedFactor="1.1" to="201238729#3" type="random_016" />
	<trip depart="57633.50" departSpeed="max" from="10425609#0" id="h20540c1:1" speedFactor="1.0" to="-128361102#1" type="default_016" />
	<trip depart="57633.90" departSpeed="max" from="124812856#0" id="carIn64490:1" speedFactor="1.0" to="306240162#0" type="default_016" />
	<trip depart="57635.00" departSpeed="max" from="399835085#1" id="h13311c1:3" speedFactor="1.0" to="32978638#0" type="default_016" />
	<trip depart="57635.60" departSpeed="max" from="124812856#0" id="carIn13362:1" speedFactor="1.0" to="306240162#0" type="default_016" />
	<trip depart="57637.10" departSpeed="max" from="124812856#0" id="carIn99385:1" speedFactor="1.0" to="-128361102#1" type="default_016" />
	<trip depart="57637.50" departSpeed="max" from="-306240162#1" id="carIn101568:1" speedFactor="1.0" to="386687235" type="default_016" />
	<trip depart="57637.70" departSpeed="max" from="124812856#0" id="carIn11547:1" speedFactor="1.0" to="306240162#0" type="default_016" />
	<trip depart="57639.20" departSpeed="max" from="272042143" id="carIn53971:1" speedFactor="1.0" to="24634414#1" type="default_016" />
	<trip depart="57640.20" departSpeed="max" from="124812856#0" id="carIn25314:1" speedFactor="1.0" to="306240162#0" type="default_016" />
	<trip depart="57640.80" departSpeed="max" from="-306240162#1" id="carIn23683:1" speedFactor="1.1" to="201956820" type="default_016" />
	<trip depart="57642.60" departSpeed="max" from="128361102#0" id="carIn102915:1" speedFactor="1.0" to="201956811#0" type="default_016" />
	<trip depart="57643.00" departSpeed="max" from="124812856#0" id="carIn32621:1" speedFactor="1.0" to="-128361102#1" type="default_016" />
	<trip depart="57644.80" departSpeed="max" from="128361102#0" id="randUni33724:1" speedFactor="1.0" to="201956811#0" type="random_016" />
	<trip depart="57644.80" departSpeed="max" from="-306240162#1" id="carIn96510:1" speedFactor="1.0" to="201956820" type="default_016" />
	<trip depart="57646.50" departSpeed="max" from="24599188#0.94" id="carIn12152:1" speedFactor="1.0" to="-315358254#1" type="default_016" />
	<trip depart="57646.70" departSpeed="max" from="386687232#0" id="carIn121703:1" speedFactor="1.1" to="-315358244" type="default_016" />
	<trip depart="57650.70" departSpeed="max" from="128361102#0" id="carIn50326:1" speedFactor="1.1" to="18809673#0" type="default_016" />
	<trip depart="57655.20" departSpeed="max" from="266565295#5" id="h3568c1:3" speedFactor="1.0" to="-24634415" type="default_016" />
	<trip depart="57656.00" departSpeed="max" from="22716069#0" id="h3326c1:2" speedFactor="1.0" to="24634517#13" type="default_016" />
	<trip depart="57657.20" departSpeed="max" from="266565295#5" id="carIn106665:1" speedFactor="1.0" to="201238729#3" type="default_016" />
	<trip depart="57657.30" departSpeed="max" from="-306240162#1" id="carIn61442:1" speedFactor="1.1" to="386687235" type="default_016" />
	<trip depart="57658.00" departSpeed="max" from="24634507" id="h3154c1:1" speedFactor="0.9000000000000001" to="-266565295#5" type="default_016" />
	<trip depart="57659.90" departSpeed="max" from="315358254#0" id="h7181c1:1" speedFactor="1.0" to="306240162#0" type="default_016" />
	<trip depart="57660.10" departSpeed="max" from="128361109#1" id="carIn12858:1" speedFactor="1.0" to="399835085#1" type="default_016" />
	<trip depart="57660.50" departSpeed="max" from="315358254#0" id="h16072c2:3" speedFactor="1.0" to="386687235" type="default_016" />
	<trip depart="57660.60" departSpeed="max" from="399835085#1" id="h21908c1:3" speedFactor="1.0" to="201956820" type="default_016" />
	<trip depart="57661.70" departSpeed="max" from="272042143" id="h17600c1:1" speedFactor="1.0" to="201238729#3" type="default_016" />
	<trip depart="57663.40" departSpeed="max" from="128361102#0" id="carIn100288:1" speedFactor="1.0" to="201956811#0" type="default_016" />
	<trip depart="57663.50" departSpeed="max" from="272042143" id="h11737c1:1" speedFactor="1.0" to="-315358254#1" type="default_016" />
	<trip depart="57664.00" departSpeed="max" from="224892339#0" id="h5216c1:1" speedFactor="1.0" to="386687235" type="default_016" />
	<trip depart="57665.40" departSpeed="max" from="128361102#0" id="carIn29531:1" speedFactor="1.1" to="201956811#0" type="default_016" />
	<trip depart="57666.90" departSpeed="max" from="128361102#0" id="carIn2912:1" speedFactor="0.9000000000000001" to="201956811#0" type="default_016" />
	<trip depart="57668.50" departSpeed="max" from="128361102#0" id="carIn49437:1" speedFactor="1.1" to="201956811#0" type="default_016" />
	<trip depart="57669.00" departSpeed="max" from="399835085#1" id="h5979c1:5" speedFactor="1.0" to="-315358254#1" type="default_016" />
	<trip depart="57669.40" departSpeed="max" from="315358242#0" id="h7097c1:1" speedFactor="0.8" to="306240162#0" type="default_016" />
	<trip depart="57672.30" departSpeed="max" from="128361109#1" id="carIn85747:1" speedFactor="1.1" to="386687235" type="default_016" />
	<trip depart="57672.50" departSpeed="max" from="-447569998#1" id="carIn27009:1" speedFactor="1.0" to="-26677539" type="default_015" />
	<trip depart="57673.30" departSpeed="max" from="-18809673#6" id="50R_frequency3.17" speedFactor="1.0" to="201956811#0" type="bus" />
	<trip depart="57673.90" departSpeed="max" from="128361109#1" id="carIn7949:1" speedFactor="1.0" to="386687235" type="default_016" />
	<trip depart="57674.00" departSpeed="max" from="272042143" id="carIn126288:1" speedFactor="1.1" to="-315358254#1" type="default_016" />
	<trip depart="57674.00" departSpeed="max" from="128361102#0" id="h18601c1:3" speedFactor="1.0" to="201956811#0" type="default_016" />
	<trip depart="57675.40" departSpeed="max" from="10425609#0" id="carIn12775:1" speedFactor="1.0" to="18809673#0" type="default_016" />
	<trip depart="57675.60" departSpeed="max" from="128361109#1" id="carIn75660:1" speedFactor="1.1" to="386687235" type="default_016" />
	<trip depart="57677.10" departSpeed="max" from="128361102#0" id="h18996c2:1" speedFactor="1.1" to="201956820" type="default_016" />
	<trip depart="57677.40" departSpeed="max" from="128361109#1" id="carIn48137:1" speedFactor="1.0" to="32978638#0" type="default_016" />
	<trip depart="57677.60" departSpeed="max" from="-306240162#1" id="carIn132618:1" speedFactor="1.0" to="386687235" type="default_016" />
	<trip depart="57678.00" departSpeed="max" from="24693977#1" id="h3864c1:3" speedFactor="1.0" to="201956820" type="default_016" />
	<trip depart="57678.40" departSpeed="max" from="315358254#0" id="h8343c1:5" speedFactor="1.1" to="-24634510#5" type="default_016" />
	<trip depart="57679.00" departSpeed="max" from="-306240162#1" id="carIn99578:1" speedFactor="1.0" to="201956820" type="default_016" />
	<trip depart="57679.10" departSpeed="max" from="128361109#1" id="h19413c1:1" speedFactor="1.0" to="386687235" type="default_016" />
	<trip depart="57680.00" departSpeed="max" from="-447569998#1" id="h17549c1:1" speedFactor="1.0" to="-315358254#1" type="default_016" />
	<trip depart="57680.80" departSpeed="max" from="315358244" id="carIn30817:1" speedFactor="1.0" to="447569997#1" type="default_016" />
	<trip depart="57681.80" departSpeed="max" from="-306240162#1" id="carIn92047:1" speedFactor="1.1" to="386687235" type="default_016" />
	<trip depart="57682.00" departSpeed="max" from="-447569998#1" id="carIn118538:1" speedFactor="1.0" to="399835085#1" type="default_016" />
	<trip depart="57682.00" departSpeed="max" from="-54169231#2" id="h9953c2:3" speedFactor="1.0" to="386687235" type="default_016" />
	<trip depart="57682.20" departSpeed="max" from="128361109#1" id="carIn88905:1" speedFactor="0.8" to="386687235" type="default_016" />
	<trip depart="57682.80" departSpeed="max" from="315358244" id="carIn46110:1" speedFactor="1.0" to="32978638#0" type="default_016" />
	<trip depart="57683.30" departSpeed="max" from="-306240162#1" id="carIn70061:1" speedFactor="1.1" to="386687235" type="default_016" />
	<trip depart="57684.70" departSpeed="max" from="-306240162#1" id="carIn119432:1" speedFactor="1.0" to="201956820" type="default_016" />
	<trip depart="57686.20" departSpeed="max" from="-306240162#1" id="carIn4826:1" speedFactor="1.0" to="386687235" type="default_016" />
	<trip depart="57688.80" departSpeed="max" from="315358244" id="carIn118591:1" speedFactor="1.0" to="386687235" type="default_016" />
	<trip depart="57689.10" departSpeed="max" from="128361109#1" id="carIn99233:1" speedFactor="1.1" to="386687235" type="default_016" />
	<trip depart="57689.50" departSpeed="max" from="315358254#0" id="h825c2:3" speedFactor="0.8" to="32978638#0" type="default_016" />
	<trip depart="57691.20" departSpeed="max" from="315358254#0" id="h4388c1:3" speedFactor="1.0" to="32978638#0" type="default_016" />
	<trip depart="57691.20" departSpeed="max" from="128361109#1" id="h19577c1:1" speedFactor="1.0" to="386687235" type="default_016" />
	<trip depart="57692.80" departSpeed="max" from="128361109#1" id="h19505c1:1" speedFactor="1.1" to="32978638#0" type="default_016" />
	<trip depart="57693.50" departSpeed="max" from="-306240162#1" id="carIn4388:1" speedFactor="1.1" to="386687235" type="default_016" />
	<trip depart="57694.40" departSpeed="max" from="128361109#1" id="carIn5824:1" speedFactor="1.0" to="386687235" type="default_016" />
	<trip depart="57696.00" departSpeed="max" from="-447569998#1" id="h7800c1:5" speedFactor="1.0" to="-447569998#1" type="default_016" />
	<trip depart="57696.10" departSpeed="max" from="128361109#1" id="h7305c1:3" speedFactor="1.0" to="40888354#0" type="default_016" />
	<trip depart="57697.00" departSpeed="max" from="-26677216#0" id="h15472c1:3" speedFactor="1.0" to="201956820" type="default_016" />
	<trip depart="57697.60" departSpeed="max" from="128361102#0" id="h23116c2:5" speedFactor="1.1" to="30482615#1" type="default_016" />
	<trip depart="57699.90" departSpeed="max" from="315358254#0" id="h11868c1:5" speedFactor="1.1" to="386687235" type="default_016" />
	<trip depart="57701.00" departSpeed="max" from="-10427692#1" id="h4538c1:1" speedFactor="1.0" to="-128361102#1" type="default_016" />
	<trip depart="57701.30" departSpeed="max" from="-306240162#1" id="carIn82278:1" speedFactor="1.1" to="399835085#1" type="default_016" />
	<trip depart="57705.30" departSpeed="max" from="-306240162#1" id="carIn23049:1" speedFactor="1.0" to="386687235" type="default_016" />
	<trip depart="57706.90" departSpeed="max" from="-32978638#0" id="h317c2:1" speedFactor="1.0" to="-266565295#5" type="default_016" />
	<trip depart="57709.90" departSpeed="max" from="-306240162#1" id="carIn60497:1" speedFactor="1.0" to="386687235" type="default_016" />
	<trip depart="57711.40" departSpeed="max" from="128361102#0" id="carIn81860:1" speedFactor="1.0" to="-24634517#17" type="default_016" />
	<trip depart="57712.50" departSpeed="max" from="315358244" id="carIn12365:1" speedFactor="1.0" to="447569997#1" type="default_016" />
	<trip depart="57712.50" departSpeed="max" from="266565295#5" id="carIn92532:1" speedFactor="1.0" to="18809673#0" type="default_016" />
	<trip depart="57716.20" departSpeed="max" from="315358254#0" id="h16437c1:3" speedFactor="0.8" to="386687235" type="default_016" />
	<trip depart="57719.50" departSpeed="max" from="-18809673#6" id="carIn36761:1" speedFactor="1.0" to="-266565295#5" type="default_016" />
	<trip depart="57719.80" departSpeed="max" from="-32978638#0" id="carIn99509:1" speedFactor="1.0" to="-315358244" type="default_015" />
	<trip depart="57725.70" departSpeed="max" from="272042143" id="carIn81681:1" speedFactor="1.1" to="306240162#0" type="default_016" />
	<trip depart="57726.00" departSpeed="max" from="-447569998#1" id="randUni3548:1" speedFactor="1.0" to="-315358254#1" type="random_016" />
	<trip depart="57727.00" departSpeed="max" from="201950247#3" id="h6541c1:3" speedFactor="1.0" to="32978638#0" type="default_016" />
	<trip depart="57728.00" departSpeed="max" from="-447569998#1" id="carIn129809:1" speedFactor="1.0" to="-315358244" type="default_015" />
	<trip depart="57728.20" departSpeed="max" from="272042143" id="carIn13443:1" speedFactor="1.0" to="399835085#1" type="default_016" />
	<trip depart="57729.40" departSpeed="max" from="10425609#0" id="h19989c1:1" speedFactor="1.0" to="-128361102#1" type="default_016" />
	<trip depart="57729.50" departSpeed="max" from="128361102#0" id="carIn75793:1" speedFactor="1.0" to="-83304175#2" type="default_016" />
	<trip depart="57731.60" departSpeed="max" from="272042143" id="carIn80913:1" speedFactor="1.0" to="306240162#0" type="default_016" />
	<trip depart="57732.20" departSpeed="max" from="10425609#0" id="carIn92858:1" speedFactor="1.0" to="-128361102#1" type="default_016" />
	<trip depart="57733.00" departSpeed="max" from="-24634510#15" id="h2483c1:1" speedFactor="1.0" to="201956820" type="default_016" />
	<trip depart="57733.90" departSpeed="max" from="-306240162#1" id="carIn36351:1" speedFactor="1.0" to="386687235" type="default_016" />
	<trip depart="57734.30" departSpeed="max" from="10425609#0" id="carIn101439:1" speedFactor="1.0" to="-128361102#1" type="default_016" />
	<trip depart="57734.90" departSpeed="max" from="386687232#0" id="randUni15030:1" speedFactor="0.8" to="26677539" type="random_016" />
	<trip depart="57735.80" departSpeed="max" from="-32978638#0" id="h330c1:1" speedFactor="1.0" to="-266565295#5" type="default_016" />
	<trip depart="57736.50" departSpeed="max" from="272042143" id="carIn101266:1" speedFactor="1.1" to="306240162#0" type="default_016" />
	<trip depart="57736.80" departSpeed="max" from="10425609#0" id="carIn84229:1" speedFactor="1.0" to="-128361102#1" type="default_016" />
	<trip depart="57737.30" departSpeed="max" from="315358254#0" id="h15045c2:3" speedFactor="1.0" to="32978638#0" type="default_016" />
	<trip depart="57738.50" departSpeed="max" from="24599188#0.94" id="carIn129628:1" speedFactor="1.0" to="-315358254#1" type="default_016" />
	<trip depart="57739.30" departSpeed="max" from="272042143" id="carIn132499:1" speedFactor="1.0" to="201238729#3" type="default_016" />
	<trip depart="57740.00" departSpeed="max" from="-26677542#0" id="h5938c1:1" speedFactor="1.0" to="447569997#1" type="default_016" />
	<trip depart="57741.00" departSpeed="max" from="26677213#0" id="h6846c2:1" speedFactor="1.0" to="386687235" type="default_016" />
	<trip depart="57741.10" departSpeed="max" from="272042143" id="carIn14532:1" speedFactor="1.0" to="399835085#1" type="default_016" />
	<trip depart="57742.40" departSpeed="max" from="266565295#5" id="h10591c1:1" speedFactor="1.1" to="18809673#0" type="default_016" />
	<trip depart="57742.50" departSpeed="max" from="386687232#0" id="carIn73855:1" speedFactor="1.0" to="-315358244" type="default_016" />
	<trip depart="57742.90" departSpeed="max" from="266565295#5" id="h13760c1:1" speedFactor="1.0" to="201238729#3" type="default_016" />
	<trip depart="57743.60" departSpeed="max" from="10425609#0" id="carIn16842:1" speedFactor="1.0" to="18809673#0" type="default_016" />
	<trip depart="57744.20" departSpeed="max" from="386687232#0" id="carIn126378:1" speedFactor="0.9000000000000001" to="-315358244" type="default_016" />
	<trip depart="57745.00" departSpeed="max" from="315358254#0" id="h7178c1:1" speedFactor="1.1" to="386687235" type="default_016" />
	<trip depart="57747.00" departSpeed="max" from="399835085#1" id="h13810c1:3" speedFactor="1.0" to="32978638#0" type="default_016" />
	<trip depart="57749.00" departSpeed="max" from="-447569998#1" id="carIn107282:1" speedFactor="1.0" to="315358242#0" type="default_016" />
	<trip depart="57749.40" departSpeed="max" from="315358244" id="h22816c2:3" speedFactor="1.0" to="201956820" type="default_016" />
	<trip depart="57749.70" departSpeed="max" from="266565295#5" id="carIn24735:1" speedFactor="1.0" to="201238729#3" type="default_016" />
	<trip depart="57750.50" departSpeed="max" from="266565295#5" id="carIn24709:1" speedFactor="1.0" to="-24634506#2" type="default_016" />
	<trip depart="57752.00" departSpeed="max" from="24634510#0" id="h8633c1:3" speedFactor="1.0" to="201956820" type="default_016" />
	<trip depart="57752.50" departSpeed="max" from="-306240162#1" id="carIn123877:1" speedFactor="0.8" to="30482615#1" type="default_016" />
	<trip depart="57754.00" departSpeed="max" from="-306240162#1" id="carIn107484:1" speedFactor="1.1" to="386687235" type="default_016" />
	<trip depart="57754.70" departSpeed="max" from="-447569998#1" id="carIn121351:1" speedFactor="1.0" to="399835085#1" type="default_015" />
	<trip depart="57755.40" departSpeed="max" from="-306240162#1" id="carIn1513:1" speedFactor="1.0" to="386687235" type="default_016" />
	<trip depart="57756.80" departSpeed="max" from="-306240162#1" id="carIn41392:1" speedFactor="1.0" to="201956820" type="default_016" />
	<trip depart="57757.30" departSpeed="max" from="128361102#0" id="carIn56449:1" speedFactor="1.1" to="30482615#1" type="default_016" />
	<trip depart="57757.40" departSpeed="max" from="-32978638#0" id="carIn117869:1" speedFactor="0.8" to="-315358244" type="default_016" />
	<trip depart="57758.50" departSpeed="max" from="24599188#0.94" id="carIn115169:1" speedFactor="1.0" to="-10427692#3" type="default_016" />
	<trip depart="57760.00" departSpeed="max" from="176550249#3" id="h8468c1:3" speedFactor="1.0" to="201238729#3" type="default_016" />
	<trip depart="57760.40" departSpeed="max" from="128361102#0" id="carIn125694:1" speedFactor="1.0" to="201956820" type="default_016" />
	<trip depart="57760.50" departSpeed="max" from="24599188#0.94" id="carIn27323:1" speedFactor="1.0" to="-315358254#1" type="default_016" />
	<trip depart="57760.60" departSpeed="max" from="-306240162#1" id="carIn53503:1" speedFactor="1.0" to="24634510#6" type="default_016" />
	<trip depart="57764.50" departSpeed="max" from="128361109#1" id="carIn49359:1" speedFactor="1.0" to="386687235" type="default_016" />
	<trip depart="57764.60" departSpeed="max" from="128361102#0" id="carIn82741:1" speedFactor="1.0" to="201956820" type="default_016" />
	<trip depart="57766.10" departSpeed="max" from="128361109#1" id="carIn70751:1" speedFactor="1.0" to="386687235" type="default_016" />
	<trip depart="57767.00" departSpeed="max" from="124812856#0" id="carIn106296:1" speedFactor="1.1" to="18809673#0" type="default_016" />
	<trip depart="57767.00" departSpeed="max" from="-24634413#2" id="h3536c1:1" speedFactor="1.1" to="32978638#0" type="default_016" />
	<trip depart="57767.70" departSpeed="max" from="128361109#1" id="carIn21399:1" speedFactor="1.0" to="-315358254#1" type="default_016" />
	<trip depart="57768.90" departSpeed="max" from="128361102#0" id="h19249c2:1" speedFactor="1.0" to="201956820" type="default_016" />
	<trip depart="57769.30" departSpeed="max" from="128361109#1" id="carIn7286:1" speedFactor="1.0" to="386687235" type="default_016" />
	<trip depart="57771.20" departSpeed="max" from="128361109#1" id="carIn75964:1" speedFactor="0.9000000000000001" to="386687235" type="default_016" />
	<trip depart="57772.80" departSpeed="max" from="128361109#1" id="carIn48897:1" speedFactor="1.0" to="386687235" type="default_016" />
	<trip depart="57773.10" departSpeed="max" from="-447569998#1" id="carIn8642:1" speedFactor="1.0" to="-315358244" type="default_016" />
	<trip depart="57773.50" departSpeed="max" from="124812856#0" id="carIn104643:1" speedFactor="1.0" to="18809673#0" type="default_016" />
	<trip depart="57776.40" departSpeed="max" from="315358254#0" id="h17039c2:3" speedFactor="1.0" to="386687235" type="default_016" />
	<trip depart="57776.60" departSpeed="max" from="128361109#1" id="carIn90140:1" speedFactor="1.1" to="399835085#1" type="default_016" />
	<trip depart="57777.10" departSpeed="max" from="128361102#0" id="h15937c1:3" speedFactor="1.0" to="201956811#0" type="default_016" />
	<trip depart="57778.20" departSpeed="max" from="128361109#1" id="carIn60867:1" speedFactor="1.1" to="386687235" type="default_016" />
	<trip depart="57779.80" departSpeed="max" from="-306240162#1" id="carIn17428:1" speedFactor="1.0" to="201956820" type="default_016" />
	<trip depart="57779.90" departSpeed="max" from="128361109#1" id="carIn121314:1" speedFactor="1.0" to="386687235" type="default_016" />
	<trip depart="57781.20" departSpeed="max" from="-306240162#1" id="carIn68868:1" speedFactor="1.0" to="386687235" type="default_016" />
	<trip depart="57781.70" departSpeed="max" from="128361109#1" id="h9261c1:3" speedFactor="1.0" to="386687235" type="default_016" />
	<trip depart="57781.90" departSpeed="max" from="315358244" id="h13540c2:3" speedFactor="1.0" to="32978638#0" type="default_016" />
	<trip depart="57782.40" departSpeed="max" from="-447569998#1" id="carIn82298:1" speedFactor="1.0" to="-315358254#1" type="default_016" />
	<trip depart="57782.50" departSpeed="max" from="-306240162#1" id="carIn90208:1" speedFactor="1.0" to="201956820" type="default_016" />
	<trip depart="57783.40" departSpeed="max" from="128361109#1" id="h18522c1:1" speedFactor="1.1" to="-315358254#1" type="default_016" />
	<trip depart="57783.80" departSpeed="max" from="-306240162#1" id="carIn39194:1" speedFactor="1.0" to="386687235" type="default_016" />
	<trip depart="57784.00" departSpeed="max" from="-18809673#6" id="carIn84877:1" speedFactor="1.1" to="201956820" type="default_016" />
	<trip depart="57785.10" departSpeed="max" from="128361109#1" id="carIn116478:1" speedFactor="0.8" to="-315358254#1" type="default_016" />
	<trip depart="57785.30" departSpeed="max" from="-32978638#0" id="carIn7631:1" speedFactor="1.0" to="-315358244" type="default_016" />
	<trip depart="57785.40" departSpeed="max" from="-306240162#1" id="carIn19971:1" speedFactor="1.0" to="201956820" type="default_016" />
	<trip depart="57785.50" departSpeed="max" from="128361102#0" id="carIn85069:1" speedFactor="0.8" to="-83304175#2" type="default_016" />
	<trip depart="57786.70" departSpeed="max" from="-306240162#1" id="carIn21032:1" speedFactor="1.0" to="386687235" type="default_016" />