<routes xmlns:xsi="http://www.w3.org/2001/XMLSchema-instance" xsi:noNamespaceSchemaLocation="http://sumo.dlr.de/xsd/routes_file.xsd">
    <vehicle depart="0.00" departSpeed="max" id="0" speedFactor="1.0749631482013273">
        <route edges="top3D3 D3D2 D2C2 C2C3 C3D3 D3top3" />
    </vehicle>
    <vehicle depart="9.00" departSpeed="max" id="1" speedFactor="0.926808115258932">
        <route edges="left0A0 A0A1 A1A2 A2A3 A3top0" />
    </vehicle>
    <vehicle depart="14.00" departSpeed="max" id="2" speedFactor="1.0166723381754976">
        <route edges="left0A0 A0B0 B0bottom1" />
    </vehicle>
    <vehicle depart="27.00" departSpeed="max" id="3" speedFactor="1.0302417063420701">
        <route edges="right3D3 D3C3 C3B3 B3A3 A3A2 A2A1 A1A0 A0bottom0" />
    </vehicle>
    <vehicle depart="34.00" departSpeed="max" id="4" speedFactor="0.9924461733773933">
        <route edges="left2A2 A2B2 B2B1 B1A1 A1A2 A2left2" />
    </vehicle>
    <vehicle depart="36.00" departSpeed="max" id="5" speedFactor="1.1765199501082046">
        <route edges="bottom1B0 B0B1 B1B2 B2B3 B3top1" />
    </vehicle>
    <vehicle depart="38.00" departSpeed="max" id="6" speedFactor="0.934527390840323">
        <route edges="bottom1B0 B0A0 A0left0" />
    </vehicle>
    <vehicle depart="53.00" departSpeed="max" id="7" speedFactor="0.8758886279137682">
        <route edges="top1B3 B3C3 C3D3 D3top3" />
    </vehicle>
    <vehicle depart="57.00" departSpeed="max" id="8" speedFactor="0.9433204050912409">
        <route edges="top2C3 C3D3 D3top3" />
    </vehicle>
    <vehicle depart="61.00" departSpeed="max" id="9" speedFactor="0.8363447150982268">
        <route edges="top1B3 B3B2 B2B1 B1B0 B0C0 C0D0 D0right0" />
    </vehicle>
    <vehicle depart="62.00" departSpeed="max" id="10" speedFactor="0.8817252930311275">
        <route edges="bottom2C0 C0C1 C1C2 C2D2 D2right2" />
    </vehicle>
    <vehicle depart="70.00" departSpeed="max" id="11" speedFactor="0.9746443844183923">
        <route edges="left1A1 A1B1 B1B0 B0A0 A0A1 A1left1" />
    </vehicle>
    <vehicle depart="74.00" departSpeed="max" id="12" speedFactor="0.8697291435463076">
        <route edges="top3D3 D3D2 D2D1 D1D0 D0right0" />
    </vehicle>
    <vehicle depart="76.00" departSpeed="max" id="13" speedFactor="1.0085322444530795">
        <route edges="right1D1 D1D2 D2D3 D3top3" />
    </vehicle>
    <vehicle depart="77.00" departSpeed="max" id="14" speedFactor="1.1158038171640532">
        <route edges="right0D0 D0D1 D1D2 D2right2" />
    </vehicle>
    <vehicle depart="79.00" departSpeed="max" id="15" speedFactor="0.9605634543007193">
        <route edges="left0A0 A0B0 B0C0 C0D0 D0right0" />
    </vehicle>
    <vehicle depart="84.00" departSpeed="max" id="16" speedFactor="1.104712966124613">
        <route edges="left2A2 A2B2 B2B3 B3top1" />
    </vehicle>
    <vehicle depart="85.00" departSpeed="max" id="17" speedFactor="0.9063755388155343">
        <route edges="bottom2C0 C0C1 C1C2 C2C3 C3D3 D3right3" />
    </vehicle>
    <vehicle depart="87.00" departSpeed="max" id="18" speedFactor="1.1095477938437048">
        <route edges="left0A0 A0B0 B0B1 B1B2 B2B3 B3C3 C3D3 D3right3" />
    </vehicle>
    <vehicle depart="90.00" departSpeed="max" id="19" speedFactor="1.1378381706496044">
        <route edges="right2D2 D2C2 C2C1 C1C0 C0bottom2" />
    </vehicle>
    <vehicle depart="98.00" departSpeed="max" id="20" speedFactor="1.0173488839414961">
        <route edges="bottom2C0 C0C1 C1C2 C2D2 D2right2" />
    </vehicle>
    <vehicle depart="101.00" departSpeed="max" id="21" speedFactor="0.945829936158183">
        <route edges="top0A3 A3A2 A2B2 B2C2 C2C1 C1C0 C0bottom2" />
    </vehicle>
    <vehicle depart="104.00" departSpeed="max" id="22" speedFactor="0.8614497875215453">
        <route edges="top1B3 B3C3 C3D3 D3top3" />
    </vehicle>
    <vehicle depart="106.00" departSpeed="max" id="23" speedFactor="1.058013210030435">
        <route edges="bottom2C0 C0C1 C1D1 D1right1" />
    </vehicle>
    <vehicle depart="110.00" departSpeed="max" id="24" speedFactor="1.0761459833575686">
        <route edges="bottom2C0 C0B0 B0bottom1" />
    </vehicle>
    <vehicle depart="111.00" departSpeed="max" id="25" speedFactor="1.0014537726900063">
        <route edges="right3D3 D3top3" />
    </vehicle>
    <vehicle depart="111.00" departSpeed="max" id="26" speedFactor="0.9845383450406233">
        <route edges="bottom0A0 A0B0 B0B1 B1B2 B2B3 B3top1" />
    </vehicle>
    <vehicle depart="114.00" departSpeed="max" id="27" speedFactor="1.165693414148337">
        <route edges="bottom1B0 B0B1 B1B2 B2B3 B3A3 A3left3" />
    </vehicle>
    <vehicle depart="117.00" departSpeed="max" id="28" speedFactor="1.0144133898884102">
        <route edges="top0A3 A3A2 A2B2 B2B1 B1B0 B0bottom1" />
    </vehicle>
    <vehicle depart="118.00" departSpeed="max" id="29" speedFactor="0.8735142867017944">
        <route edges="right2D2 D2D3 D3C3 C3B3 B3A3 A3left3" />
    </vehicle>
    <vehicle depart="137.00" departSpeed="max" id="30" speedFactor="1.0018109558170585">
        <route edges="top0A3 A3A2 A2B2 B2C2 C2C1 C1C0 C0bottom2" />
    </vehicle>
    <vehicle depart="138.00" departSpeed="max" id="31" speedFactor="0.9945651118326602">
        <route edges="left3A3 A3B3 B3top1" />
    </vehicle>
    <vehicle depart="139.00" departSpeed="max" id="32" speedFactor="0.8589900989049082">
        <route edges="top2C3 C3D3 D3right3" />
    </vehicle>
    <vehicle depart="139.00" departSpeed="max" id="33" speedFactor="0.8905439015117138">
        <route edges="left1A1 A1B1 B1C1 C1D1 D1right1" />
    </vehicle>
    <vehicle depart="143.00" departSpeed="max" id="34" speedFactor="0.8653555930183204">
        <route edges="left1A1 A1B1 B1C1 C1D1 D1D2 D2D3 D3top3" />
    </vehicle>
    <vehicle depart="146.00" departSpeed="max" id="35" speedFactor="0.8837411289112823">
        <route edges="top0A3 A3A2 A2A1 A1A0 A0left0" />
    </vehicle>
    <vehicle depart="154.00" departSpeed="max" id="36" speedFactor="1.0808719307689718">
        <route edges="left2A2 A2B2 B2C2 C2D2 D2D3 D3top3" />
    </vehicle>
    <vehicle depart="155.00" departSpeed="max" id="37" speedFactor="0.9364941879990294">
        <route edges="right3D3 D3C3 C3C2 C2C1 C1C0 C0B0 B0A0 A0left0" />
    </vehicle>
    <vehicle depart="169.00" departSpeed="max" id="38" speedFactor="0.8553642831497337">
        <route edges="top3D3 D3C3 C3B3 B3A3 A3left3" />
    </vehicle>
    <vehicle depart="173.00" departSpeed="max" id="39" speedFactor="0.9005049486821359">
        <route edges="top1B3 B3B2 B2B1 B1B0 B0A0 A0left0" />
    </vehicle>
    <vehicle depart="175.00" departSpeed="max" id="40" speedFactor="1.0693176499912185">
        <route edges="right0D0 D0C0 C0B0 B0bottom1" />
    </vehicle>
    <vehicle depart="176.00" departSpeed="max" id="41" speedFactor="1.1035869538850613">
        <route edges="right1D1 D1C1 C1B1 B1A1 A1A2 A2A3 A3left3" />
    </vehicle>
    <vehicle depart="178.00" departSpeed="max" id="42" speedFactor="1.1747821389147666">
        <route edges="left0A0 A0B0 B0C0 C0D0 D0bottom3" />
    </vehicle>
    <vehicle depart="186.00" departSpeed="max" id="43" speedFactor="1.045056286579609">
        <route edges="top0A3 A3left3" />
    </vehicle>
    <vehicle depart="197.00" departSpeed="max" id="44" speedFactor="1.0100940572773431">
        <route edges="left1A1 A1A2 A2left2" />
    </vehicle>
    <vehicle depart="204.00" departSpeed="max" id="45" speedFactor="1.0703492540188235">
        <route edges="bottom1B0 B0B1 B1C1 C1C0 C0B0 B0bottom1" />
    </vehicle>
    <vehicle depart="211.00" departSpeed="max" id="46" speedFactor="1.0236938235838802">
        <route edges="bottom1B0 B0C0 C0C1 C1C2 C2C3 C3top2" />
    </vehicle>
    <vehicle depart="212.00" departSpeed="max" id="47" speedFactor="1.0970332535839251">
        <route edges="right3D3 D3C3 C3B3 B3B2 B2B1 B1B0 B0bottom1" />
    </vehicle>
    <vehicle depart="218.00" departSpeed="max" id="48" speedFactor="0.8579857555560123">
        <route edges="top2C3 C3C2 C2D2 D2D1 D1D0 D0bottom3" />
    </vehicle>
    <vehicle depart="220.00" departSpeed="max" id="49" speedFactor="0.8801954487947625">
        <route edges="top1B3 B3A3 A3left3" />
    </vehicle>
    <vehicle depart="222.00" departSpeed="max" id="50" speedFactor="1.0551310699930463">
        <route edges="top2C3 C3C2 C2B2 B2B3 B3C3 C3top2" />
    </vehicle>
    <vehicle depart="228.00" departSpeed="max" id="51" speedFactor="1.0376473189272746">
        <route edges="top0A3 A3A2 A2A1 A1left1" />
    </vehicle>
    <vehicle depart="229.00" departSpeed="max" id="52" speedFactor="0.8601766639547007">
        <route edges="right1D1 D1C1 C1C0 C0bottom2" />
    </vehicle>
    <vehicle depart="231.00" departSpeed="max" id="53" speedFactor="0.9533370306652283">
        <route edges="top1B3 B3B2 B2C2 C2C1 C1C0 C0bottom2" />
    </vehicle>
    <vehicle depart="236.00" departSpeed="max" id="54" speedFactor="1.0180554576016427">
        <route edges="bottom0A0 A0B0 B0bottom1" />
    </vehicle>
    <vehicle depart="257.00" departSpeed="max" id="55" speedFactor="0.9577756807050942">
        <route edges="left3A3 A3B3 B3C3 C3top2" />
    </vehicle>
    <vehicle depart="259.00" departSpeed="max" id="56" speedFactor="0.9920819442347407">
        <route edges="left0A0 A0A1 A1A2 A2A3 A3left3" />
    </vehicle>
    <vehicle depart="268.00" departSpeed="max" id="57" speedFactor="0.9729436875066948">
        <route edges="bottom3D0 D0C0 C0bottom2" />
    </vehicle>
    <vehicle depart="275.00" departSpeed="max" id="58" speedFactor="0.8785638801051351">
        <route edges="bottom3D0 D0C0 C0B0 B0bottom1" />
    </vehicle>
    <vehicle depart="276.00" departSpeed="max" id="59" speedFactor="1.014606979772668">
        <route edges="top2C3 C3D3 D3right3" />
    </vehicle>
    <vehicle depart="278.00" departSpeed="max" id="60" speedFactor="1.001961059722586">
        <route edges="right3D3 D3C3 C3top2" />
    </vehicle>
    <vehicle depart="279.00" departSpeed="max" id="61" speedFactor="1.1235768803535389">
        <route edges="top3D3 D3C3 C3B3 B3A3 A3left3" />
    </vehicle>
    <vehicle depart="283.00" departSpeed="max" id="62" speedFactor="1.085944898930614">
        <route edges="right3D3 D3D2 D2D1 D1right1" />
    </vehicle>
    <vehicle depart="285.00" departSpeed="max" id="63" speedFactor="1.0873473535552427">
        <route edges="right3D3 D3D2 D2D1 D1D0 D0right0" />
    </vehicle>
    <vehicle depart="286.00" departSpeed="max" id="64" speedFactor="1.0095241019624375">
        <route edges="left0A0 A0A1 A1A2 A2left2" />
    </vehicle>
    <vehicle depart="294.00" departSpeed="max" id="65" speedFactor="1.1605095383533328">
        <route edges="left2A2 A2B2 B2C2 C2C1 C1C0 C0bottom2" />
    </vehicle>
    <vehicle depart="297.00" departSpeed="max" id="66" speedFactor="1.0366553626183306">
        <route edges="bottom0A0 A0A1 A1left1" />
    </vehicle>
    <vehicle depart="302.00" departSpeed="max" id="67" speedFactor="1.0706350165339191">
        <route edges="top3D3 D3C3 C3B3 B3A3 A3left3" />
    </vehicle>
    <vehicle depart="307.00" departSpeed="max" id="68" speedFactor="0.9791608633148692">
        <route edges="bottom2C0 C0D0 D0bottom3" />
    </vehicle>
    <vehicle depart="310.00" departSpeed="max" id="69" speedFactor="0.9199001528875157">
        <route edges="right1D1 D1C1 C1B1 B1A1 A1A0 A0bottom0" />
    </vehicle>
    <vehicle depart="320.00" departSpeed="max" id="70" speedFactor="0.910392916284553">
        <route edges="right1D1 D1C1 C1B1 B1B2 B2B3 B3top1" />
    </vehicle>
    <vehicle depart="324.00" departSpeed="max" id="71" speedFactor="0.9118126893937931">
        <route edges="bottom0A0 A0A1 A1left1" />
    </vehicle>
    <vehicle depart="327.00" departSpeed="max" id="72" speedFactor="1.002187912711905">
        <route edges="left2A2 A2B2 B2C2 C2D2 D2D3 D3top3" />
    </vehicle>
    <vehicle depart="329.00" departSpeed="max" id="73" speedFactor="1.087327867362078">
        <route edges="bottom3D0 D0C0 C0C1 C1D1 D1D0 D0bottom3" />
    </vehicle>
    <vehicle depart="330.00" departSpeed="max" id="74" speedFactor="1.0641056331976757">
        <route edges="top0A3 A3B3 B3C3 C3D3 D3right3" />
    </vehicle>
    <vehicle depart="349.00" departSpeed="max" id="75" speedFactor="1.0295554132886233">
        <route edges="top0A3 A3A2 A2A1 A1A0 A0left0" />
    </vehicle>
    <vehicle depart="359.00" departSpeed="max" id="76" speedFactor="0.9293684200112257">
        <route edges="bottom0A0 A0A1 A1B1 B1C1 C1D1 D1right1" />
    </vehicle>
    <vehicle depart="377.00" departSpeed="max" id="77" speedFactor="0.9426489616478968">
        <route edges="right0D0 D0D1 D1D2 D2D3 D3top3" />
    </vehicle>
    <vehicle depart="379.00" departSpeed="max" id="78" speedFactor="1.0498089153994334">
        <route edges="left0A0 A0A1 A1A2 A2left2" />
    </vehicle>
    <vehicle depart="380.00" departSpeed="max" id="79" speedFactor="1.111047633820639">
        <route edges="right0D0 D0D1 D1C1 C1B1 B1A1 A1left1" />
    </vehicle>
    <vehicle depart="388.00" departSpeed="max" id="80" speedFactor="1.0716754482860575">
        <route edges="top1B3 B3C3 C3top2" />
    </vehicle>
    <vehicle depart="391.00" departSpeed="max" id="81" speedFactor="1.0478534684610774">
        <route edges="right0D0 D0C0 C0B0 B0bottom1" />
    </vehicle>
    <vehicle depart="397.00" departSpeed="max" id="82" speedFactor="0.9870041842025303">
        <route edges="top0A3 A3A2 A2A1 A1B1 B1C1 C1D1 D1right1" />
    </vehicle>
    <vehicle depart="400.00" departSpeed="max" id="83" speedFactor="0.8638774124066214">
        <route edges="top0A3 A3A2 A2B2 B2C2 C2D2 D2right2" />
    </vehicle>
    <vehicle depart="402.00" departSpeed="max" id="84" speedFactor="1.1047012749675682">
        <route edges="bottom3D0 D0D1 D1D2 D2D3 D3top3" />
    </vehicle>
    <vehicle depart="406.00" departSpeed="max" id="85" speedFactor="1.0046948573491639">
        <route edges="left3A3 A3A2 A2A1 A1A0 A0bottom0" />
    </vehicle>
    <vehicle depart="407.00" departSpeed="max" id="86" speedFactor="0.8916624366305905">
        <route edges="right1D1 D1C1 C1C2 C2D2 D2D1 D1right1" />
    </vehicle>
    <vehicle depart="408.00" departSpeed="max" id="87" speedFactor="0.9735008206053439">
        <route edges="bottom1B0 B0C0 C0bottom2" />
    </vehicle>
    <vehicle depart="409.00" departSpeed="max" id="88" speedFactor="0.8556339177114662">
        <route edges="left0A0 A0A1 A1A2 A2A3 A3top0" />
    </vehicle>
    <vehicle depart="419.00" departSpeed="max" id="89" speedFactor="0.9505829379775736">
        <route edges="left3A3 A3A2 A2A1 A1left1" />
    </vehicle>
    <vehicle depart="421.00" departSpeed="max" id="90" speedFactor="0.9374501504924977">
        <route edges="left3A3 A3B3 B3top1" />
    </vehicle>
    <vehicle depart="423.00" departSpeed="max" id="91" speedFactor="0.9870096809076739">
        <route edges="right0D0 D0D1 D1D2 D2D3 D3top3" />
    </vehicle>
    <vehicle depart="426.00" departSpeed="max" id="92" speedFactor="1.0374758635853958">
        <route edges="left1A1 A1A0 A0bottom0" />
    </vehicle>
    <vehicle depart="428.00" departSpeed="max" id="93" speedFactor="0.9356328276506687">
        <route edges="left0A0 A0B0 B0B1 B1C1 C1D1 D1right1" />
    </vehicle>
    <vehicle depart="430.00" departSpeed="max" id="94" speedFactor="1.0250824103662814">
        <route edges="right0D0 D0D1 D1right1" />
    </vehicle>
    <vehicle depart="431.00" departSpeed="max" id="95" speedFactor="1.1498527147118678">
        <route edges="bottom1B0 B0B1 B1B2 B2B3 B3C3 C3D3 D3right3" />
    </vehicle>
    <vehicle depart="436.00" departSpeed="max" id="96" speedFactor="1.113995389281615">
        <route edges="left1A1 A1B1 B1B2 B2C2 C2D2 D2right2" />
    </vehicle>
    <vehicle depart="442.00" departSpeed="max" id="97" speedFactor="0.9792937334061054">
        <route edges="top1B3 B3A3 A3left3" />
    </vehicle>
    <vehicle depart="442.00" departSpeed="max" id="98" speedFactor="1.049372039705502">
        <route edges="bottom3D0 D0C0 C0B0 B0bottom1" />
    </vehicle>
    <vehicle depart="443.00" departSpeed="max" id="99" speedFactor="0.9782700759519304">
        <route edges="top1B3 B3B2 B2B1 B1B0 B0A0 A0left0" />
    </vehicle>
    <vehicle depart="452.00" departSpeed="max" id="100" speedFactor="1.1066113931757813">
        <route edges="top3D3 D3right3" />
    </vehicle>
    <vehicle depart="453.00" departSpeed="max" id="101" speedFactor="0.9661544082667572">
        <route edges="top3D3 D3D2 D2D1 D1D0 D0right0" />
    </vehicle>
    <vehicle depart="465.00" departSpeed="max" id="102" speedFactor="0.9225210433770752">
        <route edges="right0D0 D0C0 C0B0 B0A0 A0bottom0" />
    </vehicle>
    <vehicle depart="466.00" departSpeed="max" id="103" speedFactor="0.965954503466693">
        <route edges="right0D0 D0C0 C0B0 B0B1 B1B2 B2B3 B3top1" />
    </vehicle>
    <vehicle depart="466.00" departSpeed="max" id="104" speedFactor="0.9640128851846315">
        <route edges="top0A3 A3A2 A2left2" />
    </vehicle>
    <vehicle depart="467.00" departSpeed="max" id="105" speedFactor="0.8438643200198512">
        <route edges="bottom0A0 A0A1 A1A2 A2A3 A3B3 B3C3 C3D3 D3top3" />
    </vehicle>
    <vehicle depart="470.00" departSpeed="max" id="106" speedFactor="0.9308357012507089">
        <route edges="top3D3 D3D2 D2C2 C2B2 B2A2 A2left2" />
    </vehicle>
    <vehicle depart="472.00" departSpeed="max" id="107" speedFactor="1.1154921966703661">
        <route edges="top3D3 D3C3 C3B3 B3A3 A3left3" />
    </vehicle>
    <vehicle depart="473.00" departSpeed="max" id="108" speedFactor="0.8681259924175464">
        <route edges="top0A3 A3A2 A2A1 A1left1" />
    </vehicle>
    <vehicle depart="474.00" departSpeed="max" id="109" speedFactor="0.9627810789846838">
        <route edges="right2D2 D2D3 D3C3 C3B3 B3A3 A3left3" />
    </vehicle>
    <vehicle depart="482.00" departSpeed="max" id="110" speedFactor="1.0778979936623196">
        <route edges="left1A1 A1A0 A0bottom0" />
    </vehicle>
    <vehicle depart="487.00" departSpeed="max" id="111" speedFactor="1.0439790956322117">
        <route edges="left1A1 A1B1 B1C1 C1D1 D1D2 D2D3 D3top3" />
    </vehicle>
    <vehicle depart="487.00" departSpeed="max" id="112" speedFactor="1.1225079042759365">
        <route edges="left2A2 A2A1 A1left1" />
    </vehicle>
    <vehicle depart="490.00" departSpeed="max" id="113" speedFactor="0.9479870457430714">
        <route edges="top1B3 B3B2 B2B1 B1C1 C1D1 D1right1" />
    </vehicle>
    <vehicle depart="494.00" departSpeed="max" id="114" speedFactor="1.0750630331913635">
        <route edges="left3A3 A3B3 B3B2 B2A2 A2A3 A3left3" />
    </vehicle>
    <vehicle depart="502.00" departSpeed="max" id="115" speedFactor="1.1335995663330831">
        <route edges="right3D3 D3C3 C3C2 C2C1 C1B1 B1A1 A1left1" />
    </vehicle>
    <vehicle depart="503.00" departSpeed="max" id="116" speedFactor="0.8543794860680058">
        <route edges="right0D0 D0C0 C0bottom2" />
    </vehicle>
    <vehicle depart="507.00" departSpeed="max" id="117" speedFactor="0.8425500906729135">
        <route edges="top0A3 A3B3 B3C3 C3D3 D3right3" />
    </vehicle>
    <vehicle depart="514.00" departSpeed="max" id="118" speedFactor="0.9498101329332282">
        <route edges="left1A1 A1B1 B1B0 B0bottom1" />
    </vehicle>
    <vehicle depart="525.00" departSpeed="max" id="119" speedFactor="0.9097598859423116">
        <route edges="right2D2 D2C2 C2B2 B2A2 A2A1 A1A0 A0bottom0" />
    </vehicle>
    <vehicle depart="526.00" departSpeed="max" id="120" speedFactor="1.121736389595241">
        <route edges="left2A2 A2B2 B2C2 C2D2 D2D3 D3top3" />
    </vehicle>
    <vehicle depart="531.00" departSpeed="max" id="121" speedFactor="1.053932484458404">
        <route edges="right3D3 D3C3 C3C2 C2C1 C1C0 C0bottom2" />
    </vehicle>
    <vehicle depart="534.00" departSpeed="max" id="122" speedFactor="1.0522136531180324">
        <route edges="right0D0 D0C0 C0C1 C1D1 D1D0 D0right0" />
    </vehicle>
    <vehicle depart="534.00" departSpeed="max" id="123" speedFactor="0.8855088427268701">
        <route edges="left3A3 A3B3 B3top1" />
    </vehicle>
    <vehicle depart="538.00" departSpeed="max" id="124" speedFactor="0.9476473992610245">
        <route edges="right3D3 D3C3 C3C2 C2B2 B2A2 A2left2" />
    </vehicle>
    <vehicle depart="546.00" departSpeed="max" id="125" speedFactor="1.0329177525389739">
        <route edges="left2A2 A2B2 B2C2 C2D2 D2D3 D3top3" />
    </vehicle>
    <vehicle depart="546.00" departSpeed="max" id="126" speedFactor="1.0727167970525051">
        <route edges="left0A0 A0B0 B0B1 B1B2 B2B3 B3top1" />
    </vehicle>
    <vehicle depart="548.00" departSpeed="max" id="127" speedFactor="0.9645436694560517">
        <route edges="right1D1 D1D0 D0bottom3" />
    </vehicle>
    <vehicle depart="549.00" departSpeed="max" id="128" speedFactor="0.8429017219278412">
        <route edges="bottom3D0 D0D1 D1D2 D2D3 D3C3 C3B3 B3A3 A3left3" />
    </vehicle>
    <vehicle depart="552.00" departSpeed="max" id="129" speedFactor="1.0964364311155375">
        <route edges="right2D2 D2C2 C2C3 C3top2" />
    </vehicle>
    <vehicle depart="555.00" departSpeed="max" id="130" speedFactor="0.928772106398209">
        <route edges="left0A0 A0B0 B0bottom1" />
    </vehicle>
    <vehicle depart="564.00" departSpeed="max" id="131" speedFactor="0.9004603673889799">
        <route edges="left0A0 A0A1 A1left1" />
    </vehicle>
    <vehicle depart="565.00" departSpeed="max" id="132" speedFactor="1.0363693897972297">
        <route edges="left0A0 A0B0 B0C0 C0D0 D0right0" />
    </vehicle>
    <vehicle depart="570.00" departSpeed="max" id="133" speedFactor="1.1110851946483962">
        <route edges="top0A3 A3A2 A2A1 A1B1 B1C1 C1D1 D1right1" />
    </vehicle>
    <vehicle depart="572.00" departSpeed="max" id="134" speedFactor="1.1590626414455947">
        <route edges="bottom2C0 C0B0 B0bottom1" />
    </vehicle>
    <vehicle depart="579.00" departSpeed="max" id="135" speedFactor="1.0399737672635487">
        <route edges="bottom0A0 A0A1 A1A2 A2A3 A3top0" />
    </vehicle>
    <vehicle depart="580.00" departSpeed="max" id="136" speedFactor="1.0394194053515733">
        <route edges="top1B3 B3B2 B2B1 B1B0 B0A0 A0left0" />
    </vehicle>
    <vehicle depart="581.00" departSpeed="max" id="137" speedFactor="0.9506534049587164">
        <route edges="right1D1 D1D0 D0bottom3" />
    </vehicle>
    <vehicle depart="582.00" departSpeed="max" id="138" speedFactor="0.9239069716756025">
        <route edges="right0D0 D0D1 D1C1 C1B1 B1A1 A1left1" />
    </vehicle>
    <vehicle depart="583.00" departSpeed="max" id="139" speedFactor="0.8952822305564226">
        <route edges="right2D2 D2C2 C2B2 B2B1 B1B0 B0bottom1" />
    </vehicle>
    <vehicle depart="590.00" departSpeed="max" id="140" speedFactor="0.9624216829324799">
        <route edges="left1A1 A1B1 B1B0 B0A0 A0A1 A1left1" />
    </vehicle>
    <vehicle depart="601.00" departSpeed="max" id="141" speedFactor="1.1149774102115464">
        <route edges="bottom0A0 A0left0" />
    </vehicle>
    <vehicle depart="603.00" departSpeed="max" id="142" speedFactor="1.0199370537179142">
        <route edges="right1D1 D1C1 C1C0 C0bottom2" />
    </vehicle>
    <vehicle depart="603.00" departSpeed="max" id="143" speedFactor="0.9017979362046559">
        <route edges="right3D3 D3D2 D2D1 D1right1" />
    </vehicle>
    <vehicle depart="611.00" departSpeed="max" id="144" speedFactor="0.9447110970855479">
        <route edges="bottom1B0 B0C0 C0D0 D0right0" />
    </vehicle>
    <vehicle depart="616.00" departSpeed="max" id="145" speedFactor="1.0443113402044113">
        <route edges="left0A0 A0B0 B0C0 C0D0 D0D1 D1D2 D2D3 D3top3" />
    </vehicle>
    <vehicle depart="619.00" departSpeed="max" id="146" speedFactor="1.1174163915253406">
        <route edges="right0D0 D0C0 C0B0 B0A0 A0A1 A1A2 A2A3 A3left3" />
    </vehicle>
    <vehicle depart="621.00" departSpeed="max" id="147" speedFactor="1.1532996582442605">
        <route edges="bottom0A0 A0B0 B0C0 C0D0 D0bottom3" />
    </vehicle>
    <vehicle depart="622.00" departSpeed="max" id="148" speedFactor="1.0190277799078404">
        <route edges="top1B3 B3B2 B2B1 B1C1 C1D1 D1right1" />
    </vehicle>
    <vehicle depart="637.00" departSpeed="max" id="149" speedFactor="1.0146116568968826">
        <route edges="left0A0 A0B0 B0C0 C0D0 D0right0" />
    </vehicle>
    <vehicle depart="637.00" departSpeed="max" id="150" speedFactor="0.9923581475599892">
        <route edges="left2A2 A2B2 B2B3 B3top1" />
    </vehicle>
    <vehicle depart="639.00" departSpeed="max" id="151" speedFactor="1.0296838666683206">
        <route edges="right3D3 D3C3 C3C2 C2B2 B2A2 A2left2" />
    </vehicle>
    <vehicle depart="644.00" departSpeed="max" id="152" speedFactor="0.8641141380608126">
        <route edges="right2D2 D2C2 C2B2 B2A2 A2left2" />
    </vehicle>
    <vehicle depart="647.00" departSpeed="max" id="153" speedFactor="1.0946619612998467">
        <route edges="bottom0A0 A0A1 A1left1" />
    </vehicle>
    <vehicle depart="651.00" departSpeed="max" id="154" speedFactor="1.119072919744996">
        <route edges="bottom2C0 C0C1 C1D1 D1right1" />
    </vehicle>
    <vehicle depart="656.00" departSpeed="max" id="155" speedFactor="1.0294658356385649">
        <route edges="left3A3 A3B3 B3B2 B2A2 A2A3 A3left3" />
    </vehicle>
    <vehicle depart="663.00" departSpeed="max" id="156" speedFactor="1.0757548798136405">
        <route edges="right0D0 D0C0 C0bottom2" />
    </vehicle>
    <vehicle depart="665.00" departSpeed="max" id="157" speedFactor="0.8911066762527002">
        <route edges="top3D3 D3D2 D2C2 C2B2 B2A2 A2left2" />
    </vehicle>
    <vehicle depart="667.00" departSpeed="max" id="158" speedFactor="1.0430152567384072">
        <route edges="bottom1B0 B0B1 B1B2 B2B3 B3C3 C3D3 D3top3" />
    </vehicle>
    <vehicle depart="672.00" departSpeed="max" id="159" speedFactor="1.0795891668549875">
        <route edges="top2C3 C3D3 D3top3" />
    </vehicle>
    <vehicle depart="680.00" departSpeed="max" id="160" speedFactor="0.8940137218200409">
        <route edges="left3A3 A3B3 B3B2 B2B1 B1B0 B0bottom1" />
    </vehicle>
    <vehicle depart="683.00" departSpeed="max" id="161" speedFactor="0.8906812224422694">
        <route edges="left0A0 A0A1 A1A2 A2A3 A3left3" />
    </vehicle>
    <vehicle depart="694.00" departSpeed="max" id="162" speedFactor="0.9604740653922833">
        <route edges="right3D3 D3C3 C3B3 B3A3 A3A2 A2A1 A1A0 A0bottom0" />
    </vehicle>
    <vehicle depart="694.00" departSpeed="max" id="163" speedFactor="1.1247197830560196">
        <route edges="left3A3 A3A2 A2A1 A1A0 A0left0" />
    </vehicle>
    <vehicle depart="705.00" departSpeed="max" id="164" speedFactor="1.1535606811723742">
        <route edges="bottom2C0 C0C1 C1C2 C2B2 B2A2 A2left2" />
    </vehicle>
    <vehicle depart="706.00" departSpeed="max" id="165" speedFactor="0.9871734917619216">
        <route edges="right3D3 D3C3 C3B3 B3A3 A3top0" />
    </vehicle>
    <vehicle depart="728.00" departSpeed="max" id="166" speedFactor="0.9142132237569067">
        <route edges="top1B3 B3B2 B2C2 C2C1 C1C0 C0bottom2" />
    </vehicle>
    <vehicle depart="730.00" departSpeed="max" id="167" speedFactor="1.0746360351252358">
        <route edges="top2C3 C3C2 C2C1 C1D1 D1right1" />
    </vehicle>
    <vehicle depart="733.00" departSpeed="max" id="168" speedFactor="0.9970692710885177">
        <route edges="left2A2 A2B2 B2C2 C2D2 D2D1 D1D0 D0bottom3" />
    </vehicle>
    <vehicle depart="736.00" departSpeed="max" id="169" speedFactor="0.9978000763605915">
        <route edges="left3A3 A3B3 B3C3 C3D3 D3D2 D2D1 D1right1" />
    </vehicle>
    <vehicle depart="737.00" departSpeed="max" id="170" speedFactor="1.018085769254169">
        <route edges="right1D1 D1C1 C1B1 B1A1 A1left1" />
    </vehicle>
    <vehicle depart="741.00" departSpeed="max" id="171" speedFactor="0.9730674068695573">
        <route edges="left2A2 A2A3 A3left3" />
    </vehicle>
    <vehicle depart="745.00" departSpeed="max" id="172" speedFactor="1.1517390026474665">
        <route edges="right1D1 D1C1 C1B1 B1A1 A1A2 A2A3 A3top0" />
    </vehicle>
    <vehicle depart="747.00" departSpeed="max" id="173" speedFactor="0.9900272799019226">
        <route edges="left0A0 A0A1 A1A2 A2A3 A3left3" />
    </vehicle>
    <vehicle depart="751.00" departSpeed="max" id="174" speedFactor="0.9423957750812917">
        <route edges="right1D1 D1C1 C1B1 B1A1 A1A2 A2A3 A3left3" />
    </vehicle>
    <vehicle depart="754.00" departSpeed="max" id="175" speedFactor="1.064976923393593">
        <route edges="bottom2C0 C0C1 C1C2 C2D2 D2right2" />
    </vehicle>
    <vehicle depart="755.00" departSpeed="max" id="176" speedFactor="1.1559159104016652">
        <route edges="bottom2C0 C0C1 C1C2 C2C3 C3D3 D3right3" />
    </vehicle>
    <vehicle depart="755.00" departSpeed="max" id="177" speedFactor="1.0123437855913222">
        <route edges="left1A1 A1A0 A0bottom0" />
    </vehicle>
    <vehicle depart="759.00" departSpeed="max" id="178" speedFactor="1.070306606747111">
        <route edges="top3D3 D3C3 C3B3 B3A3 A3left3" />
    </vehicle>
    <vehicle depart="760.00" departSpeed="max" id="179" speedFactor="1.0025571208810515">
        <route edges="left2A2 A2A3 A3left3" />
    </vehicle>
    <vehicle depart="762.00" departSpeed="max" id="180" speedFactor="0.8550474910389486">
        <route edges="top2C3 C3B3 B3A3 A3top0" />
    </vehicle>
    <vehicle depart="766.00" departSpeed="max" id="181" speedFactor="0.9556706633255108">
        <route edges="bottom0A0 A0B0 B0bottom1" />
    </vehicle>
    <vehicle depart="766.00" departSpeed="max" id="182" speedFactor="0.8533786938455776">
        <route edges="bottom3D0 D0C0 C0B0 B0A0 A0left0" />
    </vehicle>
    <vehicle depart="773.00" departSpeed="max" id="183" speedFactor="1.0191552868413827">
        <route edges="bottom2C0 C0C1 C1C2 C2D2 D2right2" />
    </vehicle>