<routes xmlns:xsi="http://www.w3.org/2001/XMLSchema-instance" xsi:noNamespaceSchemaLocation="http://sumo.dlr.de/xsd/routes_file.xsd">
    <vehicle depart="0.00" departSpeed="max" id="0.0" speedFactor="0.8603906675533742">
        <route edges="E3 E4 E5 E8 E8.144 E8.328 -E23" />
    </vehicle>
    <vehicle depart="0.00" departSpeed="max" id="1.0" speedFactor="0.8249579002783236">
        <route edges="E7 E5 E8 E8.144 E8.328 -E23" />
    </vehicle>
    <vehicle depart="0.00" departSpeed="max" id="10.0" speedFactor="0.9115552509581827">
        <route edges="E20 -E21 -E19 -E18 -E16 -E16.416 -E13" />
    </vehicle>
    <vehicle depart="0.00" departSpeed="max" id="11.0" speedFactor="0.8015945278177197">
        <route edges="E26 E27 E27.85 E30 -E28 -E29" />
    </vehicle>
    <vehicle depart="0.00" departSpeed="max" id="12.0" speedFactor="0.8715701122283158">
        <route edges="E24 -E26" />
    </vehicle>
    <vehicle depart="0.00" departSpeed="max" id="13.0" speedFactor="0.8311742135179512">
        <route edges="-E27 -E27.751 -E26" />
    </vehicle>
    <vehicle depart="0.00" departSpeed="max" id="2.0" speedFactor="0.9016650984425171">
        <route edges="E6 E5 E8 E8.144 E8.328 -E23" />
    </vehicle>
    <vehicle depart="0.00" departSpeed="max" id="3.0" speedFactor="0.8454399854103517">
        <route edges="E23 E80 E9 E12 E12.64 E14 -E13" />
    </vehicle>
    <vehicle depart="0.00" departSpeed="max" id="4.0" speedFactor="0.9759103562742244">
        <route edges="E37 -E23" />
    </vehicle>
    <vehicle depart="0.00" departSpeed="max" id="5.0" speedFactor="0.8724263705643936">
        <route edges="E11 -E10" />
    </vehicle>
    <vehicle depart="0.00" departSpeed="max" id="6.0" speedFactor="0.8446131655072444">
        <route edges="E10 -E11" />
    </vehicle>
    <vehicle depart="0.00" departSpeed="max" id="7.0" speedFactor="0.9772673120943978">
        <route edges="E15 -E13" />
    </vehicle>
    <vehicle depart="0.00" departSpeed="max" id="8.0" speedFactor="0.9457548897165434">
        <route edges="E13 -E15" />
    </vehicle>
    <vehicle depart="0.00" departSpeed="max" id="9.0" speedFactor="0.9741334434696222">
        <route edges="E17 -E18 -E16 -E16.416 -E14 -E12 -E12.352 -E9 -E8 -E8.220 -E8.144 -E80 -E5 -E7" />
    </vehicle>
    <vehicle depart="2.23" departSpeed="max" id="0.1" speedFactor="0.8453833375742503">
        <route edges="E3 E4 E5 E8 E8.144 E8.328 -E37" />
    </vehicle>
    <vehicle depart="4.25" departSpeed="max" id="11.1" speedFactor="0.8822661476802688">
        <route edges="E26 -E24" />
    </vehicle>
    <vehicle depart="4.45" departSpeed="max" id="0.2" speedFactor="0.8816974808872685">
        <route edges="E3 E4 E5 E8 E8.144 E8.328 -E37" />
    </vehicle>
    <vehicle depart="4.62" departSpeed="max" id="13.1" speedFactor="0.8124539607770512">
        <route edges="-E27 -E27.751 -E25 -E22 -E21 -E19 -E18 -E16 -E16.416 -E14 -E12 -E12.352 -E9 -E8 -E37" />
    </vehicle>
    <vehicle depart="5.11" departSpeed="max" id="12.1" speedFactor="0.9245867413985023">
        <route edges="E24 -E25 -E22 -E21 -E19 -E18 -E16 -E16.416 -E14 -E12 -E12.352 -E9 -E8 -E8.220 -E8.144 -E80 -E5 -E7" />
    </vehicle>
    <vehicle depart="6.68" departSpeed="max" id="0.3" speedFactor="0.9674438083461447">
        <route edges="E3 E4 E5 E8 E8.144 E8.328 E80 E9 E12 E12.64 E14 E16 E16.94 E18 E19 E21 -E20" />
    </vehicle>
    <vehicle depart="7.32" departSpeed="max" id="2.1" speedFactor="0.8939229839891083">
        <route edges="E6 E5 E8 E8.144 E8.328 -E37" />
    </vehicle>
    <vehicle depart="8.26" departSpeed="max" id="6.1" speedFactor="0.84516735185865">
        <route edges="E10 -E11" />
    </vehicle>
    <vehicle depart="8.49" departSpeed="max" id="11.2" speedFactor="0.9644774747646295">
        <route edges="E26 -E25 -E22 -E21 -E19 -E17" />
    </vehicle>
    <vehicle depart="8.91" departSpeed="max" id="0.4" speedFactor="0.9229097993330835">
        <route edges="E3 E4 E5 E8 E8.144 E8.328 E80 E9 E12 E12.64 E14 E16 E16.94 E18 E19 E21 E22 E25 E27 E27.85 E30 -E32 -E48" />
    </vehicle>
    <vehicle depart="9.00" departSpeed="max" id="1.1" speedFactor="0.9910523402641307">
        <route edges="E7 E5 E8 E8.144 E8.328 E80 E9 -E10" />
    </vehicle>
    <vehicle depart="9.00" departSpeed="max" id="7.1" speedFactor="0.9884417617048664">
        <route edges="E15 E16 E16.94 E18 -E17" />
    </vehicle>
    <vehicle depart="9.00" departSpeed="max" id="8.1" speedFactor="0.8996615637887657">
        <route edges="E13 E16 E16.94 E18 E19 E21 -E20" />
    </vehicle>
    <vehicle depart="9.23" departSpeed="max" id="13.2" speedFactor="0.8972553812668187">
        <route edges="-E27 -E27.751 -E25 -E22 -E20" />
    </vehicle>
    <vehicle depart="10.21" departSpeed="max" id="12.2" speedFactor="0.8252154335066172">
        <route edges="E24 -E26" />
    </vehicle>
    <vehicle depart="11.14" departSpeed="max" id="0.5" speedFactor="0.8356347382506504">
        <route edges="E3 E4 E5 E8 E8.144 E8.328 E80 E9 E12 E12.64 E14 -E15" />
    </vehicle>
    <vehicle depart="12.74" departSpeed="max" id="11.3" speedFactor="0.8769660031381178">
        <route edges="E26 -E25 -E22 -E20" />
    </vehicle>
    <vehicle depart="13.36" departSpeed="max" id="0.6" speedFactor="0.9944163817345466">
        <route edges="E3 E4 -E7" />
    </vehicle>
    <vehicle depart="13.85" departSpeed="max" id="13.3" speedFactor="0.9564848437191732">
        <route edges="-E27 -E27.751 -E25 -E22 -E20" />
    </vehicle>
    <vehicle depart="14.63" departSpeed="max" id="2.2" speedFactor="0.9515495059207185">
        <route edges="E6 -E7" />
    </vehicle>
    <vehicle depart="15.32" departSpeed="max" id="12.3" speedFactor="0.8081346992175547">
        <route edges="E24 -E25 -E22 -E21 -E19 -E18 -E16 -E16.416 -E15" />
    </vehicle>
    <vehicle depart="15.59" departSpeed="max" id="0.7" speedFactor="0.9520200296832381">
        <route edges="E3 E4 E5 E8 E8.144 E8.328 -E23" />
    </vehicle>
    <vehicle depart="16.51" departSpeed="max" id="6.2" speedFactor="0.9278659657728607">
        <route edges="E10 -E9 -E8 -E8.220 -E8.144 -E80 -E5 -E4 -E3 -E0 -E0.276 -E1 -E2" />
    </vehicle>
    <vehicle depart="16.98" departSpeed="max" id="11.4" speedFactor="0.970847749941149">
        <route edges="E26 -E24" />
    </vehicle>
    <vehicle depart="17.82" departSpeed="max" id="0.8" speedFactor="0.8504638172478074">
        <route edges="E3 E4 E5 E8 E8.144 E8.328 E80 E9 E12 E12.64 E14 E16 E16.94 E18 -E17" />
    </vehicle>
    <vehicle depart="18.00" departSpeed="max" id="1.2" speedFactor="0.8616336820795808">
        <route edges="E7 -E6" />
    </vehicle>
    <vehicle depart="18.00" departSpeed="max" id="5.1" speedFactor="0.8678815037558019">
        <route edges="E11 -E10" />
    </vehicle>
    <vehicle depart="18.00" departSpeed="max" id="7.2" speedFactor="0.9740534420484">
        <route edges="E15 -E14 -E12 -E12.352 -E9 -E8 -E23" />
    </vehicle>
    <vehicle depart="18.00" departSpeed="max" id="8.2" speedFactor="0.886967717516527">
        <route edges="E13 -E15" />
    </vehicle>
    <vehicle depart="18.46" departSpeed="max" id="13.4" speedFactor="0.9356470613417465">
        <route edges="-E27 -E27.751 -E25 -E22 -E21 -E19 -E18 -E16 -E16.416 -E14 -E12 -E12.352 -E9 -E8 -E8.220 -E8.144 -E80 -E5 -E4 -E3 -E0 -E0.276 -264341313#0 -264341313#00 264341313#0 264341313#0.680 -E49" />
    </vehicle>
    <vehicle depart="20.04" departSpeed="max" id="0.9" speedFactor="0.9004425639766829">
        <route edges="E3 E4 E5 E8 E8.144 E8.328 -E23" />
    </vehicle>
    <vehicle depart="20.42" departSpeed="max" id="12.4" speedFactor="0.9580580319609207">
        <route edges="E24 E27 E27.85 E30 E31 E31.112 E33 E36 E36.81" />
    </vehicle>
    <vehicle depart="21.23" departSpeed="max" id="11.5" speedFactor="0.8055234045840621">
        <route edges="E26 -E24" />
    </vehicle>
    <vehicle depart="21.95" departSpeed="max" id="2.3" speedFactor="0.8350182985634375">
        <route edges="E6 -E7" />
    </vehicle>
    <vehicle depart="22.27" departSpeed="max" id="0.10" speedFactor="0.9104934033920715">
        <route edges="E3 E4 E5 E8 E8.144 E8.328 E80 E9 E12 E12.64 E14 E16 E16.94 E18 E19 E21 E22 E25 E27 E27.85 E30 E31 E31.112 E33 -E34 -E47" />
    </vehicle>
    <vehicle depart="23.08" departSpeed="max" id="13.5" speedFactor="0.9289622099576279">
        <route edges="-E27 -E27.751 -E24" />
    </vehicle>
    <vehicle depart="24.50" departSpeed="max" id="0.11" speedFactor="0.9168509010739399">
        <route edges="E3 E4 E5 E8 E8.144 E8.328 -E23" />
    </vehicle>
    <vehicle depart="24.77" departSpeed="max" id="6.3" speedFactor="0.8482454859724299">
        <route edges="E10 -E11" />
    </vehicle>
    <vehicle depart="25.47" departSpeed="max" id="11.6" speedFactor="0.8910140160270762">
        <route edges="E26 -E24" />
    </vehicle>
    <vehicle depart="25.53" departSpeed="max" id="12.5" speedFactor="0.9313333493229883">
        <route edges="E24 -E25 -E22 -E21 -E19 -E17" />
    </vehicle>
    <vehicle depart="26.72" departSpeed="max" id="0.12" speedFactor="0.8032516803717983">
        <route edges="E3 E4 E5 E8 E8.144 E8.328 -E23" />
    </vehicle>
    <vehicle depart="27.00" departSpeed="max" id="1.3" speedFactor="0.9920280745373922">
        <route edges="E7 E5 E8 E8.144 E8.328 -E23" />
    </vehicle>
    <vehicle depart="27.00" departSpeed="max" id="7.3" speedFactor="0.9964671217403888">
        <route edges="E15 -E14 -E12 -E12.352 -E10" />
    </vehicle>
    <vehicle depart="27.00" departSpeed="max" id="8.3" speedFactor="0.8428192674695452">
        <route edges="E13 -E14 -E12 -E12.352 -E9 -E8 -E37" />
    </vehicle>
    <vehicle depart="27.69" departSpeed="max" id="13.6" speedFactor="0.983870971992365">
        <route edges="-E27 -E27.751 -E25 -E22 -E21 -E19 -E17" />
    </vehicle>
    <vehicle depart="28.95" departSpeed="max" id="0.13" speedFactor="0.842101429044858">
        <route edges="E3 E4 E5 E8 E8.144 E8.328 -E37" />
    </vehicle>
    <vehicle depart="29.27" departSpeed="max" id="2.4" speedFactor="0.9023393425342596">
        <route edges="E6 -E7" />
    </vehicle>
    <vehicle depart="29.72" departSpeed="max" id="11.7" speedFactor="0.9076379125658278">
        <route edges="E26 E27 E27.85 E30 E31 E31.112 E33 E36 E36.81" />
    </vehicle>
    <vehicle depart="30.64" departSpeed="max" id="12.6" speedFactor="0.9522239616873029">
        <route edges="E24 E27 E27.85 E30 -E28 -E29" />
    </vehicle>
    <vehicle depart="31.18" departSpeed="max" id="0.14" speedFactor="0.826000929299125">
        <route edges="E3 E4 E5 E8 E8.144 E8.328 -E23" />
    </vehicle>
    <vehicle depart="32.31" departSpeed="max" id="13.7" speedFactor="0.9879919399097098">
        <route edges="-E27 -E27.751 -E26" />
    </vehicle>
    <vehicle depart="33.02" departSpeed="max" id="6.4" speedFactor="0.8197386769638305">
        <route edges="E10 E12 E12.64 E14 E16 E16.94 E18 E19 E21 -E20" />
    </vehicle>
    <vehicle depart="33.41" departSpeed="max" id="0.15" speedFactor="0.8587252736402264">
        <route edges="E3 E4 E5 E8 E8.144 E8.328 E80 E9 E12 E12.64 E14 -E15" />
    </vehicle>
    <vehicle depart="33.96" departSpeed="max" id="11.8" speedFactor="0.9382373525462205">
        <route edges="E26 E27 E27.85 E30 E31 E31.112 E33 -E35" />
    </vehicle>
    <vehicle depart="35.63" departSpeed="max" id="0.16" speedFactor="0.9214031949344869">
        <route edges="E3 E4 E5 E8 E8.144 E8.328 -E23" />
    </vehicle>
    <vehicle depart="35.74" departSpeed="max" id="12.7" speedFactor="0.9698609501149353">
        <route edges="E24 E27 E27.85 E30 E31 E31.112 E33 -E34 -E47" />
    </vehicle>
    <vehicle depart="36.00" departSpeed="max" id="1.4" speedFactor="0.8123880845219404">
        <route edges="E7 E5 E8 E8.144 E8.328 -E37" />
    </vehicle>
    <vehicle depart="36.00" departSpeed="max" id="10.1" speedFactor="0.8956164315077326">
        <route edges="E20 E22 E25 E27 E27.85 E30 -E32 -E48" />
    </vehicle>
    <vehicle depart="36.00" departSpeed="max" id="3.1" speedFactor="0.8049484149619256">
        <route edges="E23 E80 E9 E12 E12.64 E14 E16 E16.94 E18 -E17" />
    </vehicle>
    <vehicle depart="36.00" departSpeed="max" id="4.1" speedFactor="0.8189760053639938">
        <route edges="E37 -E23" />
    </vehicle>
    <vehicle depart="36.00" departSpeed="max" id="5.2" speedFactor="0.8561820705012217">
        <route edges="E11 E12 E12.64 E14 E16 E16.94 E18 -E17" />
    </vehicle>
    <vehicle depart="36.00" departSpeed="max" id="7.4" speedFactor="0.9717617043852357">
        <route edges="E15 E16 E16.94 E18 -E17" />
    </vehicle>
    <vehicle depart="36.00" departSpeed="max" id="8.4" speedFactor="0.9748268662214622">
        <route edges="E13 E16 E16.94 E18 E19 E21 -E20" />
    </vehicle>
    <vehicle depart="36.00" departSpeed="max" id="9.1" speedFactor="0.9161077351574691">
        <route edges="E17 -E18 -E16 -E16.416 -E14 -E12 -E12.352 -E9 -E8 -E37" />
    </vehicle>
    <vehicle depart="36.59" departSpeed="max" id="2.5" speedFactor="0.987113875514781">
        <route edges="E6 -E4 -E3 842463330#1 -842463330#1 -E0 -E0.276 -264341313#0 -264341313#00 264341313#0 264341313#0.680 -E1 -E2" />
    </vehicle>
    <vehicle depart="36.92" departSpeed="max" id="13.8" speedFactor="0.8047335778167495">
        <route edges="-E27 -E27.751 -E25 -E22 -E21 -E19 -E18 -E16 -E16.416 -E14 -E12 -E12.352 -E11" />
    </vehicle>
    <vehicle depart="37.86" departSpeed="max" id="0.17" speedFactor="0.8442824788422802">
        <route edges="E3 E4 E5 E8 E8.144 E8.328 -E23" />
    </vehicle>
    <vehicle depart="38.21" departSpeed="max" id="11.9" speedFactor="0.9413003018687846">
        <route edges="E26 -E24" />
    </vehicle>
    <vehicle depart="40.09" departSpeed="max" id="0.18" speedFactor="0.9587176876870128">
        <route edges="E3 E4 E5 E8 E8.144 E8.328 E80 E9 -E11" />
    </vehicle>
    <vehicle depart="40.85" departSpeed="max" id="12.8" speedFactor="0.9697873191465797">
        <route edges="E24 -E26" />
    </vehicle>
    <vehicle depart="41.28" departSpeed="max" id="6.5" speedFactor="0.9023242426740945">
        <route edges="E10 -E9 -E8 -E37" />
    </vehicle>
    <vehicle depart="41.54" departSpeed="max" id="13.9" speedFactor="0.8342765809828269">
        <route edges="-E27 -E27.751 -E24" />
    </vehicle>
    <vehicle depart="42.31" departSpeed="max" id="0.19" speedFactor="0.8104234854037103">
        <route edges="E3 E4 E5 E8 E8.144 E8.328 E80 E9 E12 E12.64 E14 E16 E16.94 E18 E19 E21 E22 E25 E27 E27.85 E30 E31 E31.112 E33 -E35" />
    </vehicle>
    <vehicle depart="42.45" departSpeed="max" id="11.10" speedFactor="0.9524945485159128">
        <route edges="E26 -E25 -E22 -E20" />
    </vehicle>
    <vehicle depart="43.90" departSpeed="max" id="2.6" speedFactor="0.9846636635453396">
        <route edges="E6 E5 E8 E8.144 E8.328 E80 E9 E12 E12.64 E14 -E15" />
    </vehicle>
    <vehicle depart="44.54" departSpeed="max" id="0.20" speedFactor="0.911782326972393">
        <route edges="E3 E4 E5 E8 E8.144 E8.328 -E37" />
    </vehicle>
    <vehicle depart="45.00" departSpeed="max" id="1.5" speedFactor="0.9323235678386037">
        <route edges="E7 -E6" />
    </vehicle>
    <vehicle depart="45.00" departSpeed="max" id="7.5" speedFactor="0.8901019228952467">
        <route edges="E15 E16 E16.94 E18 -E17" />
    </vehicle>
    <vehicle depart="45.00" departSpeed="max" id="8.5" speedFactor="0.8717072943701456">
        <route edges="E13 -E15" />
    </vehicle>
    <vehicle depart="45.95" departSpeed="max" id="12.9" speedFactor="0.8174258427588453">
        <route edges="E24 -E26" />
    </vehicle>
    <vehicle depart="46.15" departSpeed="max" id="13.10" speedFactor="0.9178368048631877">
        <route edges="-E27 -E27.751 -E25 -E22 -E20" />
    </vehicle>
    <vehicle depart="46.70" departSpeed="max" id="11.11" speedFactor="0.8326957761424371">
        <route edges="E26 -E24" />
    </vehicle>
    <vehicle depart="46.77" departSpeed="max" id="0.21" speedFactor="0.9501466923561724">
        <route edges="E3 E4 E5 E8 E8.144 E8.328 -E37" />
    </vehicle>
    <vehicle depart="48.99" departSpeed="max" id="0.22" speedFactor="0.9964045561165541">
        <route edges="E3 E4 E5 E8 E8.144 E8.328 -E23" />
    </vehicle>
    <vehicle depart="49.54" departSpeed="max" id="6.6" speedFactor="0.9770137243778171">
        <route edges="E10 -E11" />
    </vehicle>
    <vehicle depart="50.77" departSpeed="max" id="13.11" speedFactor="0.8745469538944981">
        <route edges="-E27 -E27.751 -E26" />
    </vehicle>
    <vehicle depart="50.94" departSpeed="max" id="11.12" speedFactor="0.912609233388019">
        <route edges="E26 E27 E27.85 E30 -E32 -E48" />
    </vehicle>
    <vehicle depart="51.06" departSpeed="max" id="12.10" speedFactor="0.9320681209906129">
        <route edges="E24 E27 E27.85 E30 E31 E31.112 E33 -E34 -E47" />
    </vehicle>
    <vehicle depart="51.22" departSpeed="max" id="2.7" speedFactor="0.9654013038118593">
        <route edges="E6 E5 E8 E8.144 E8.328 -E37" />
    </vehicle>
    <vehicle depart="51.22" departSpeed="max" id="0.23" speedFactor="0.9523122264499162">
        <route edges="E3 E4 -E7" />
    </vehicle>
    <vehicle depart="53.45" departSpeed="max" id="0.24" speedFactor="0.9566722066401087">
        <route edges="E3 E4 E5 E8 E8.144 E8.328 -E23" />
    </vehicle>
    <vehicle depart="54.00" departSpeed="max" id="1.6" speedFactor="0.9965559645011262">
        <route edges="E7 -E6" />
    </vehicle>
    <vehicle depart="54.00" departSpeed="max" id="5.3" speedFactor="0.9843671417748916">
        <route edges="E11 E12 E12.64 E14 E16 E16.94 E18 -E17" />
    </vehicle>
    <vehicle depart="54.00" departSpeed="max" id="7.6" speedFactor="0.9471832626240789">
        <route edges="E15 E16 E16.94 E18 E19 E21 E22 E25 E27 E27.85 E30 -E28 -E29" />
    </vehicle>
    <vehicle depart="54.00" departSpeed="max" id="8.6" speedFactor="0.856557285297806">
        <route edges="E13 -E15" />
    </vehicle>
    <vehicle depart="55.19" departSpeed="max" id="11.13" speedFactor="0.8990999095410683">
        <route edges="E26 -E24" />
    </vehicle>
    <vehicle depart="55.38" departSpeed="max" id="13.12" speedFactor="0.9921963346429379">
        <route edges="-E27 -E27.751 -E25 -E22 -E20" />
    </vehicle>
    <vehicle depart="55.68" departSpeed="max" id="0.25" speedFactor="0.9959120449996952">
        <route edges="E3 E4 E5 E8 E8.144 E8.328 -E37" />
    </vehicle>
    <vehicle depart="56.17" departSpeed="max" id="12.11" speedFactor="0.9784158418619073">
        <route edges="E24 -E26" />
    </vehicle>
    <vehicle depart="57.79" departSpeed="max" id="6.7" speedFactor="0.8467979481847407">
        <route edges="E10 -E11" />
    </vehicle>
    <vehicle depart="57.90" departSpeed="max" id="0.26" speedFactor="0.9919530779504645">
        <route edges="E3 E4 E5 E8 E8.144 E8.328 -E37" />
    </vehicle>
    <vehicle depart="58.54" departSpeed="max" id="2.8" speedFactor="0.9152389207502755">
        <route edges="E6 -E7" />
    </vehicle>
    <vehicle depart="59.43" departSpeed="max" id="11.14" speedFactor="0.8497863753555175">
        <route edges="E26 -E24" />
    </vehicle>
    <vehicle depart="60.00" departSpeed="max" id="13.13" speedFactor="0.8834515597160337">
        <route edges="-E27 -E27.751 -E25 -E22 -E21 -E19 -E18 -E16 -E16.416 -E14 -E12 -E12.352 -E10" />
    </vehicle>
    <vehicle depart="60.13" departSpeed="max" id="0.27" speedFactor="0.8503887388517506">
        <route edges="E3 E4 E5 E8 E8.144 E8.328 E80 E9 E12 E12.64 E14 E16 E16.94 E18 -E17" />
    </vehicle>
    <vehicle depart="61.27" departSpeed="max" id="12.12" speedFactor="0.8039892343943854">
        <route edges="E24 -E26" />
    </vehicle>
    <vehicle depart="62.36" departSpeed="max" id="0.28" speedFactor="0.8536649722010341">
        <route edges="E3 E4 E5 E8 E8.144 E8.328 E80 E9 E12 E12.64 E14 E16 E16.94 E18 -E17" />
    </vehicle>
    <vehicle depart="63.00" departSpeed="max" id="1.7" speedFactor="0.9610524241210848">
        <route edges="E7 -E6" />
    </vehicle>
    <vehicle depart="63.00" departSpeed="max" id="7.7" speedFactor="0.9633129284553266">
        <route edges="E15 -E13" />
    </vehicle>
    <vehicle depart="63.00" departSpeed="max" id="8.7" speedFactor="0.8886797002907232">
        <route edges="E13 -E14 -E12 -E12.352 -E9 -E8 -E8.220 -E8.144 -E80 -E5 -E4 -E3 842463330#1 -842463330#1 -E0 -E0.276 -E1 -E2" />
    </vehicle>
    <vehicle depart="63.68" departSpeed="max" id="11.15" speedFactor="0.8922213429109049">
        <route edges="E26 E27 E27.85 E30 -E28 -E29" />
    </vehicle>
    <vehicle depart="64.58" departSpeed="max" id="0.29" speedFactor="0.9557319322801202">
        <route edges="E3 E4 E5 E8 E8.144 E8.328 -E23" />
    </vehicle>
    <vehicle depart="64.61" departSpeed="max" id="13.14" speedFactor="0.8584628866793651">
        <route edges="-E27 -E27.751 -E25 -E22 -E21 -E19 -E18 -E16 -E16.416 -E15" />
    </vehicle>
    <vehicle depart="65.85" departSpeed="max" id="2.9" speedFactor="0.9674198388892429">
        <route edges="E6 -E7" />
    </vehicle>
    <vehicle depart="66.05" departSpeed="max" id="6.8" speedFactor="0.9514649372232319">
        <route edges="E10 -E11" />
    </vehicle>
    <vehicle depart="66.38" departSpeed="max" id="12.13" speedFactor="0.9351860241563396">
        <route edges="E24 -E25 -E22 -E21 -E19 -E18 -E16 -E16.416 -E15" />
    </vehicle>
    <vehicle depart="66.81" departSpeed="max" id="0.30" speedFactor="0.8045251016430008">
        <route edges="E3 E4 E5 E8 E8.144 E8.328 E80 E9 E12 E12.64 E14 E16 E16.94 E18 -E17" />
    </vehicle>
    <vehicle depart="67.92" departSpeed="max" id="11.16" speedFactor="0.9654021069419261">
        <route edges="E26 E27 E27.85 E30 E31 E31.112 E33 E36 E36.81" />
    </vehicle>
    <vehicle depart="69.04" departSpeed="max" id="0.31" speedFactor="0.9123133368581703">
        <route edges="E3 E4 -E7" />
    </vehicle>
    <vehicle depart="69.23" departSpeed="max" id="13.15" speedFactor="0.8581826247259082">
        <route edges="-E27 -E27.751 -E25 -E22 -E20" />
    </vehicle>
    <vehicle depart="71.26" departSpeed="max" id="0.32" speedFactor="0.8086633238720154">
        <route edges="E3 E4 E5 E8 E8.144 E8.328 E80 E9 E12 E12.64 E14 E16 E16.94 E18 E19 E21 -E20" />
    </vehicle>
    <vehicle depart="71.48" departSpeed="max" id="12.14" speedFactor="0.8718310019125943">
        <route edges="E24 -E25 -E22 -E21 -E19 -E17" />
    </vehicle>
    <vehicle depart="72.00" departSpeed="max" id="1.8" speedFactor="0.931441279379428">
        <route edges="E7 -E4 -E3 -E0 -E0.276 -E1 -E2" />
    </vehicle>
    <vehicle depart="72.00" departSpeed="max" id="10.2" speedFactor="0.9805169565032266">
        <route edges="E20 -E21 -E19 -E17" />
    </vehicle>
    <vehicle depart="72.00" departSpeed="max" id="3.2" speedFactor="0.8815707559651262">
        <route edges="E23 -E37" />
    </vehicle>
    <vehicle depart="72.00" departSpeed="max" id="4.2" speedFactor="0.9977744008864351">
        <route edges="E37 -E8.220 -E8.144 -E80 -E5 -E4 -E3 842463330#1 -842463330#1 E3 E4 E5 E8 E8.144 E8.328 -E23" />
    </vehicle>
    <vehicle depart="72.00" departSpeed="max" id="5.4" speedFactor="0.9517715079717377">
        <route edges="E11 E12 E12.64 E14 E16 E16.94 E18 E19 E21 -E20" />
    </vehicle>
    <vehicle depart="72.00" departSpeed="max" id="7.8" speedFactor="0.9034710588488984">
        <route edges="E15 -E13" />
    </vehicle>
    <vehicle depart="72.00" departSpeed="max" id="8.8" speedFactor="0.9863490677704638">
        <route edges="E13 -E15" />
    </vehicle>
    <vehicle depart="72.00" departSpeed="max" id="9.2" speedFactor="0.848339715473229">
        <route edges="E17 -E18 -E16 -E16.416 -E14 -E12 -E12.352 -E9 -E8 -E8.220 -E8.144 -E80 -E5 -E4 -E3 842463330#1 -842463330#1 E3 E4 E5 E8 E8.144 E8.328 E80 E9 -E11" />
    </vehicle>
    <vehicle depart="72.17" departSpeed="max" id="11.17" speedFactor="0.9408145465725662">
        <route edges="E26 -E25 -E22 -E20" />
    </vehicle>
    <vehicle depart="73.17" departSpeed="max" id="2.10" speedFactor="0.8181456863429294">
        <route edges="E6 -E7" />
    </vehicle>
    <vehicle depart="73.49" departSpeed="max" id="0.33" speedFactor="0.8426783343643449">
        <route edges="E3 E4 E5 E8 E8.144 E8.328 E80 E9 E12 E12.64 E14 -E13" />
    </vehicle>
    <vehicle depart="73.84" departSpeed="max" id="13.16" speedFactor="0.8268038437175823">
        <route edges="-E27 -E27.751 -E25 -E22 -E21 -E19 -E17" />
    </vehicle>
    <vehicle depart="74.30" departSpeed="max" id="6.9" speedFactor="0.8958891125270476">
        <route edges="E10 -E9 -E8 -E8.220 -E8.144 -E80 -E5 -E7" />
    </vehicle>
    <vehicle depart="75.72" departSpeed="max" id="0.34" speedFactor="0.8312663326595895">
        <route edges="E3 E4 E5 E8 E8.144 E8.328 -E23" />
    </vehicle>
    <vehicle depart="76.41" departSpeed="max" id="11.18" speedFactor="0.8861604686747643">
        <route edges="E26 -E25 -E22 -E21 -E19 -E18 -E16 -E16.416 -E14 -E12 -E12.352 -E9 -E8 -E8.220 -E8.144 -E80 -E5 -E4 -E3 -E0 -E0.276 -E49" />
    </vehicle>
    <vehicle depart="76.59" departSpeed="max" id="12.15" speedFactor="0.9016903799679239">
        <route edges="E24 -E25 -E22 -E21 -E19 -E17" />
    </vehicle>
    <vehicle depart="77.95" departSpeed="max" id="0.35" speedFactor="0.8585200080963165">
        <route edges="E3 E4 E5 E8 E8.144 E8.328 -E23" />
    </vehicle>
    <vehicle depart="78.46" departSpeed="max" id="13.17" speedFactor="0.8037950089025313">
        <route edges="-E27 -E27.751 -E25 -E22 -E20" />
    </vehicle>
    <vehicle depart="80.17" departSpeed="max" id="0.36" speedFactor="0.8236922442563508">
        <route edges="E3 E4 E5 E8 E8.144 E8.328 -E23" />
    </vehicle>
    <vehicle depart="80.49" departSpeed="max" id="2.11" speedFactor="0.8195854154277563">
        <route edges="E6 E5 E8 E8.144 E8.328 E80 E9 E12 E12.64 E14 E16 E16.94 E18 -E17" />
    </vehicle>
    <vehicle depart="80.66" departSpeed="max" id="11.19" speedFactor="0.955762197629007">
        <route edges="E26 -E24" />
    </vehicle>
    <vehicle depart="81.00" departSpeed="max" id="1.9" speedFactor="0.9220282870128627">
        <route edges="E7 E5 E8 E8.144 E8.328 -E37" />
    </vehicle>
    <vehicle depart="81.00" departSpeed="max" id="7.9" speedFactor="0.8351970698612586">
        <route edges="E15 -E13" />
    </vehicle>
    <vehicle depart="81.00" departSpeed="max" id="8.9" speedFactor="0.9927297822385477">
        <route edges="E13 E16 E16.94 E18 -E17" />
    </vehicle>
    <vehicle depart="81.70" departSpeed="max" id="12.16" speedFactor="0.8598888093367524">
        <route edges="E24 -E26" />
    </vehicle>
    <vehicle depart="82.40" departSpeed="max" id="0.37" speedFactor="0.9030368464722086">
        <route edges="E3 E4 -E6" />
    </vehicle>
    <vehicle depart="82.56" departSpeed="max" id="6.10" speedFactor="0.8703723077287033">
        <route edges="E10 E12 E12.64 E14 E16 E16.94 E18 -E17" />
    </vehicle>
    <vehicle depart="83.07" departSpeed="max" id="13.18" speedFactor="0.9775979776614996">
        <route edges="-E27 -E27.751 -E25 -E22 -E20" />
    </vehicle>
    <vehicle depart="84.63" departSpeed="max" id="0.38" speedFactor="0.9159151456479905">
        <route edges="E3 E4 E5 E8 E8.144 E8.328 -E37" />
    </vehicle>
    <vehicle depart="84.90" departSpeed="max" id="11.20" speedFactor="0.9012456413723191">
        <route edges="E26 -E24" />
    </vehicle>
    <vehicle depart="86.80" departSpeed="max" id="12.17" speedFactor="0.8489679855943304">
        <route edges="E24 E27 E27.85 E30 E31 E31.112 E33 -E34 -E47" />
    </vehicle>
    <vehicle depart="86.85" departSpeed="max" id="0.39" speedFactor="0.9084889578277879">
        <route edges="E3 E4 E5 E8 E8.144 E8.328 E80 E9 -E10" />
    </vehicle>
    <vehicle depart="87.69" departSpeed="max" id="13.19" speedFactor="0.8237523269664053">
        <route edges="-E27 -E27.751 -E26" />
    </vehicle>
    <vehicle depart="87.80" departSpeed="max" id="2.12" speedFactor="0.8519309567283851">
        <route edges="E6 E5 E8 E8.144 E8.328 E80 E9 E12 E12.64 E14 E16 E16.94 E18 -E17" />
    </vehicle>
    <vehicle depart="89.08" departSpeed="max" id="0.40" speedFactor="0.9756551383007972">
        <route edges="E3 E4 E5 E8 E8.144 E8.328 -E23" />
    </vehicle>
    <vehicle depart="89.15" departSpeed="max" id="11.21" speedFactor="0.8388449087326583">
        <route edges="E26 E27 E27.85 E30 -E28 -E29" />
    </vehicle>
    <vehicle depart="90.00" departSpeed="max" id="1.10" speedFactor="0.9134848872780643">
        <route edges="E7 -E6" />
    </vehicle>
    <vehicle depart="90.00" departSpeed="max" id="5.5" speedFactor="0.8874402944687974">
        <route edges="E11 -E10" />
    </vehicle>
    <vehicle depart="90.00" departSpeed="max" id="7.10" speedFactor="0.9082482088369621">
        <route edges="E15 -E13" />
    </vehicle>
    <vehicle depart="90.00" departSpeed="max" id="8.10" speedFactor="0.8529449563372483">
        <route edges="E13 -E15" />
    </vehicle>
    <vehicle depart="90.82" departSpeed="max" id="6.11" speedFactor="0.8296174336809007">
        <route edges="E10 -E9 -E8 -E23" />
    </vehicle>
    <vehicle depart="91.31" departSpeed="max" id="0.41" speedFactor="0.8409779080075521">
        <route edges="E3 E4 E5 E8 E8.144 E8.328 E80 E9 E12 E12.64 E14 E16 E16.94 E18 E19 E21 -E20" />
    </vehicle>
    <vehicle depart="91.91" departSpeed="max" id="12.18" speedFactor="0.9170641178405956">
        <route edges="E24 -E25 -E22 -E20" />
    </vehicle>
    <vehicle depart="92.30" departSpeed="max" id="13.20" speedFactor="0.89058451544418">
        <route edges="-E27 -E27.751 -E25 -E22 -E20" />
    </vehicle>
    <vehicle depart="93.39" departSpeed="max" id="11.22" speedFactor="0.9172966034062764">
        <route edges="E26 E27 E27.85 E30 E31 E31.112 E33 E36 E36.81" />
    </vehicle>
    <vehicle depart="93.53" departSpeed="max" id="0.42" speedFactor="0.8392018284009766">
        <route edges="E3 E4 E5 E8 E8.144 E8.328 -E37" />
    </vehicle>