<routes xmlns:xsi="http://www.w3.org/2001/XMLSchema-instance" xsi:noNamespaceSchemaLocation="http://sumo.dlr.de/xsd/routes_file.xsd">
    <vehicle depart="0.00" departSpeed="max" id="0.0" speedFactor="1.1776289083759017">
        <route edges="E3 E4 E5 E8 E8.144 E8.328 -E23" />
    </vehicle>
    <vehicle depart="0.00" departSpeed="max" id="1.0" speedFactor="1.0845383557822386">
        <route edges="E7 E5 E8 E8.144 E8.328 -E23" />
    </vehicle>
    <vehicle depart="0.00" departSpeed="max" id="10.0" speedFactor="1.078269652148765">
        <route edges="E20 -E21 -E19 -E18 -E16 -E16.416 -E13" />
    </vehicle>
    <vehicle depart="0.00" departSpeed="max" id="11.0" speedFactor="1.1666588317415627">
        <route edges="E26 E27 E27.85 E30 -E28 -E29" />
    </vehicle>
    <vehicle depart="0.00" departSpeed="max" id="12.0" speedFactor="1.0539636808412172">
        <route edges="E24 -E26" />
    </vehicle>
    <vehicle depart="0.00" departSpeed="max" id="13.0" speedFactor="1.1815500677709374">
        <route edges="-E27 -E27.751 -E26" />
    </vehicle>
    <vehicle depart="0.00" departSpeed="max" id="2.0" speedFactor="1.0551823815219243">
        <route edges="E6 E5 E8 E8.144 E8.328 -E23" />
    </vehicle>
    <vehicle depart="0.00" departSpeed="max" id="3.0" speedFactor="1.0701310809058442">
        <route edges="E23 E80 E9 E12 E12.64 E14 -E13" />
    </vehicle>
    <vehicle depart="0.00" departSpeed="max" id="4.0" speedFactor="1.1972959269145305">
        <route edges="E37 -E23" />
    </vehicle>
    <vehicle depart="0.00" departSpeed="max" id="5.0" speedFactor="1.0194336640895443">
        <route edges="E11 -E10" />
    </vehicle>
    <vehicle depart="0.00" departSpeed="max" id="6.0" speedFactor="1.0652594013145207">
        <route edges="E10 -E11" />
    </vehicle>
    <vehicle depart="0.00" departSpeed="max" id="7.0" speedFactor="1.1570691204401689">
        <route edges="E15 -E13" />
    </vehicle>
    <vehicle depart="0.00" departSpeed="max" id="8.0" speedFactor="1.1363266729694064">
        <route edges="E13 -E15" />
    </vehicle>
    <vehicle depart="0.00" departSpeed="max" id="9.0" speedFactor="1.0167982605205892">
        <route edges="E17 -E18 -E16 -E16.416 -E14 -E12 -E12.352 -E9 -E8 -E8.220 -E8.144 -E80 -E5 -E7" />
    </vehicle>
    <vehicle depart="2.23" departSpeed="max" id="0.1" speedFactor="1.1719974393468222">
        <route edges="E3 E4 E5 E8 E8.144 E8.328 -E37" />
    </vehicle>
    <vehicle depart="4.25" departSpeed="max" id="11.1" speedFactor="1.0998401327067644">
        <route edges="E26 -E24" />
    </vehicle>
    <vehicle depart="4.45" departSpeed="max" id="0.2" speedFactor="1.118065977235162">
        <route edges="E3 E4 E5 E8 E8.144 E8.328 -E37" />
    </vehicle>
    <vehicle depart="4.62" departSpeed="max" id="13.1" speedFactor="1.078782581634083">
        <route edges="-E27 -E27.751 -E25 -E22 -E21 -E19 -E18 -E16 -E16.416 -E14 -E12 -E12.352 -E9 -E8 -E37" />
    </vehicle>
    <vehicle depart="5.11" departSpeed="max" id="12.1" speedFactor="1.0020662456697667">
        <route edges="E24 -E25 -E22 -E21 -E19 -E18 -E16 -E16.416 -E14 -E12 -E12.352 -E9 -E8 -E8.220 -E8.144 -E80 -E5 -E7" />
    </vehicle>
    <vehicle depart="6.68" departSpeed="max" id="0.3" speedFactor="1.0015086169472887">
        <route edges="E3 E4 E5 E8 E8.144 E8.328 E80 E9 E12 E12.64 E14 E16 E16.94 E18 E19 E21 -E20" />
    </vehicle>
    <vehicle depart="7.32" departSpeed="max" id="2.1" speedFactor="1.0787827410679685">
        <route edges="E6 E5 E8 E8.144 E8.328 -E37" />
    </vehicle>
    <vehicle depart="8.26" departSpeed="max" id="6.1" speedFactor="1.1727769147380525">
        <route edges="E10 -E11" />
    </vehicle>
    <vehicle depart="8.49" departSpeed="max" id="11.2" speedFactor="1.0556233426107628">
        <route edges="E26 -E25 -E22 -E21 -E19 -E17" />
    </vehicle>
    <vehicle depart="8.91" departSpeed="max" id="0.4" speedFactor="1.0064452485319997">
        <route edges="E3 E4 E5 E8 E8.144 E8.328 E80 E9 E12 E12.64 E14 E16 E16.94 E18 E19 E21 E22 E25 E27 E27.85 E30 -E32 -E48" />
    </vehicle>
    <vehicle depart="9.00" departSpeed="max" id="1.1" speedFactor="1.047742860332661">
        <route edges="E7 E5 E8 E8.144 E8.328 E80 E9 -E10" />
    </vehicle>
    <vehicle depart="9.00" departSpeed="max" id="7.1" speedFactor="1.0643465192130688">
        <route edges="E15 E16 E16.94 E18 -E17" />
    </vehicle>
    <vehicle depart="9.00" departSpeed="max" id="8.1" speedFactor="1.174864506060783">
        <route edges="E13 E16 E16.94 E18 E19 E21 -E20" />
    </vehicle>
    <vehicle depart="9.23" departSpeed="max" id="13.2" speedFactor="1.0370467737765277">
        <route edges="-E27 -E27.751 -E25 -E22 -E20" />
    </vehicle>
    <vehicle depart="10.21" departSpeed="max" id="12.2" speedFactor="1.0540927641220392">
        <route edges="E24 -E26" />
    </vehicle>
    <vehicle depart="11.14" departSpeed="max" id="0.5" speedFactor="1.0138356315078414">
        <route edges="E3 E4 E5 E8 E8.144 E8.328 E80 E9 E12 E12.64 E14 -E15" />
    </vehicle>
    <vehicle depart="12.74" departSpeed="max" id="11.3" speedFactor="1.16832603817604">
        <route edges="E26 -E25 -E22 -E20" />
    </vehicle>
    <vehicle depart="13.36" departSpeed="max" id="0.6" speedFactor="1.192260703112565">
        <route edges="E3 E4 -E7" />
    </vehicle>
    <vehicle depart="13.85" departSpeed="max" id="13.3" speedFactor="1.1541293355458384">
        <route edges="-E27 -E27.751 -E25 -E22 -E20" />
    </vehicle>
    <vehicle depart="14.63" departSpeed="max" id="2.2" speedFactor="1.1975564186226335">
        <route edges="E6 -E7" />
    </vehicle>
    <vehicle depart="15.32" departSpeed="max" id="12.3" speedFactor="1.0624540116031802">
        <route edges="E24 -E25 -E22 -E21 -E19 -E18 -E16 -E16.416 -E15" />
    </vehicle>
    <vehicle depart="15.59" departSpeed="max" id="0.7" speedFactor="1.008370747841428">
        <route edges="E3 E4 E5 E8 E8.144 E8.328 -E23" />
    </vehicle>
    <vehicle depart="16.51" departSpeed="max" id="6.2" speedFactor="1.1888953282483388">
        <route edges="E10 -E9 -E8 -E8.220 -E8.144 -E80 -E5 -E4 -E3 -E0 -E0.276 -E1 -E2" />
    </vehicle>
    <vehicle depart="16.98" departSpeed="max" id="11.4" speedFactor="1.0020587354341355">
        <route edges="E26 -E24" />
    </vehicle>
    <vehicle depart="17.82" departSpeed="max" id="0.8" speedFactor="1.0699001411238904">
        <route edges="E3 E4 E5 E8 E8.144 E8.328 E80 E9 E12 E12.64 E14 E16 E16.94 E18 -E17" />
    </vehicle>
    <vehicle depart="18.00" departSpeed="max" id="1.2" speedFactor="1.1049412168307988">
        <route edges="E7 -E6" />
    </vehicle>
    <vehicle depart="18.00" departSpeed="max" id="5.1" speedFactor="1.0716016795881647">
        <route edges="E11 -E10" />
    </vehicle>
    <vehicle depart="18.00" departSpeed="max" id="7.2" speedFactor="1.085970727747158">
        <route edges="E15 -E14 -E12 -E12.352 -E9 -E8 -E23" />
    </vehicle>
    <vehicle depart="18.00" departSpeed="max" id="8.2" speedFactor="1.1089377579369764">
        <route edges="E13 -E15" />
    </vehicle>
    <vehicle depart="18.46" departSpeed="max" id="13.4" speedFactor="1.1224499581830414">
        <route edges="-E27 -E27.751 -E25 -E22 -E21 -E19 -E18 -E16 -E16.416 -E14 -E12 -E12.352 -E9 -E8 -E8.220 -E8.144 -E80 -E5 -E4 -E3 -E0 -E0.276 -264341313#0 -264341313#00 264341313#0 264341313#0.680 -E49" />
    </vehicle>
    <vehicle depart="20.04" departSpeed="max" id="0.9" speedFactor="1.130372412074713">
        <route edges="E3 E4 E5 E8 E8.144 E8.328 -E23" />
    </vehicle>
    <vehicle depart="20.42" departSpeed="max" id="12.4" speedFactor="1.0742841902074722">
        <route edges="E24 E27 E27.85 E30 E31 E31.112 E33 E36 E36.81" />
    </vehicle>
    <vehicle depart="21.23" departSpeed="max" id="11.5" speedFactor="1.1304648067372884">
        <route edges="E26 -E24" />
    </vehicle>
    <vehicle depart="21.95" departSpeed="max" id="2.3" speedFactor="1.024292117342486">
        <route edges="E6 -E7" />
    </vehicle>
    <vehicle depart="22.27" departSpeed="max" id="0.10" speedFactor="1.0445005391904614">
        <route edges="E3 E4 E5 E8 E8.144 E8.328 E80 E9 E12 E12.64 E14 E16 E16.94 E18 E19 E21 E22 E25 E27 E27.85 E30 E31 E31.112 E33 -E34 -E47" />
    </vehicle>
    <vehicle depart="23.08" departSpeed="max" id="13.5" speedFactor="1.1223826004792423">
        <route edges="-E27 -E27.751 -E24" />
    </vehicle>
    <vehicle depart="24.50" departSpeed="max" id="0.11" speedFactor="1.1569913589654093">
        <route edges="E3 E4 E5 E8 E8.144 E8.328 -E23" />
    </vehicle>
    <vehicle depart="24.77" departSpeed="max" id="6.3" speedFactor="1.165320675032296">
        <route edges="E10 -E11" />
    </vehicle>
    <vehicle depart="25.47" departSpeed="max" id="11.6" speedFactor="1.1806977871791065">
        <route edges="E26 -E24" />
    </vehicle>
    <vehicle depart="25.53" departSpeed="max" id="12.5" speedFactor="1.1143691087524075">
        <route edges="E24 -E25 -E22 -E21 -E19 -E17" />
    </vehicle>
    <vehicle depart="26.72" departSpeed="max" id="0.12" speedFactor="1.077273250814921">
        <route edges="E3 E4 E5 E8 E8.144 E8.328 -E23" />
    </vehicle>
    <vehicle depart="27.00" departSpeed="max" id="1.3" speedFactor="1.0388547406279163">
        <route edges="E7 E5 E8 E8.144 E8.328 -E23" />
    </vehicle>
    <vehicle depart="27.00" departSpeed="max" id="7.3" speedFactor="1.0005254710705611">
        <route edges="E15 -E14 -E12 -E12.352 -E10" />
    </vehicle>
    <vehicle depart="27.00" departSpeed="max" id="8.3" speedFactor="1.1774619422156816">
        <route edges="E13 -E14 -E12 -E12.352 -E9 -E8 -E37" />
    </vehicle>
    <vehicle depart="27.69" departSpeed="max" id="13.6" speedFactor="1.067007709795849">
        <route edges="-E27 -E27.751 -E25 -E22 -E21 -E19 -E17" />
    </vehicle>
    <vehicle depart="28.95" departSpeed="max" id="0.13" speedFactor="1.0770664039132625">
        <route edges="E3 E4 E5 E8 E8.144 E8.328 -E37" />
    </vehicle>
    <vehicle depart="29.27" departSpeed="max" id="2.4" speedFactor="1.1080709951278185">
        <route edges="E6 -E7" />
    </vehicle>
    <vehicle depart="29.72" departSpeed="max" id="11.7" speedFactor="1.0690619438995028">
        <route edges="E26 E27 E27.85 E30 E31 E31.112 E33 E36 E36.81" />
    </vehicle>
    <vehicle depart="30.64" departSpeed="max" id="12.6" speedFactor="1.067910922584007">
        <route edges="E24 E27 E27.85 E30 -E28 -E29" />
    </vehicle>
    <vehicle depart="31.18" departSpeed="max" id="0.14" speedFactor="1.0662119405779058">
        <route edges="E3 E4 E5 E8 E8.144 E8.328 -E23" />
    </vehicle>
    <vehicle depart="32.31" departSpeed="max" id="13.7" speedFactor="1.1896472600404684">
        <route edges="-E27 -E27.751 -E26" />
    </vehicle>
    <vehicle depart="33.02" departSpeed="max" id="6.4" speedFactor="1.122201958254289">
        <route edges="E10 E12 E12.64 E14 E16 E16.94 E18 E19 E21 -E20" />
    </vehicle>
    <vehicle depart="33.41" departSpeed="max" id="0.15" speedFactor="1.1589693177659357">
        <route edges="E3 E4 E5 E8 E8.144 E8.328 E80 E9 E12 E12.64 E14 -E15" />
    </vehicle>
    <vehicle depart="33.96" departSpeed="max" id="11.8" speedFactor="1.0242564877824116">
        <route edges="E26 E27 E27.85 E30 E31 E31.112 E33 -E35" />
    </vehicle>
    <vehicle depart="35.63" departSpeed="max" id="0.16" speedFactor="1.1778148052166637">
        <route edges="E3 E4 E5 E8 E8.144 E8.328 -E23" />
    </vehicle>
    <vehicle depart="35.74" departSpeed="max" id="12.7" speedFactor="1.105959224945547">
        <route edges="E24 E27 E27.85 E30 E31 E31.112 E33 -E34 -E47" />
    </vehicle>
    <vehicle depart="36.00" departSpeed="max" id="1.4" speedFactor="1.071637650263604">
        <route edges="E7 E5 E8 E8.144 E8.328 -E37" />
    </vehicle>
    <vehicle depart="36.00" departSpeed="max" id="10.1" speedFactor="1.139876188978197">
        <route edges="E20 E22 E25 E27 E27.85 E30 -E32 -E48" />
    </vehicle>
    <vehicle depart="36.00" departSpeed="max" id="3.1" speedFactor="1.1110536950363947">
        <route edges="E23 E80 E9 E12 E12.64 E14 E16 E16.94 E18 -E17" />
    </vehicle>
    <vehicle depart="36.00" departSpeed="max" id="4.1" speedFactor="1.1460571691823838">
        <route edges="E37 -E23" />
    </vehicle>
    <vehicle depart="36.00" departSpeed="max" id="5.2" speedFactor="1.0465552568586352">
        <route edges="E11 E12 E12.64 E14 E16 E16.94 E18 -E17" />
    </vehicle>
    <vehicle depart="36.00" departSpeed="max" id="7.4" speedFactor="1.0202304954360424">
        <route edges="E15 E16 E16.94 E18 -E17" />
    </vehicle>
    <vehicle depart="36.00" departSpeed="max" id="8.4" speedFactor="1.1802644079345157">
        <route edges="E13 E16 E16.94 E18 E19 E21 -E20" />
    </vehicle>
    <vehicle depart="36.00" departSpeed="max" id="9.1" speedFactor="1.0246118873081729">
        <route edges="E17 -E18 -E16 -E16.416 -E14 -E12 -E12.352 -E9 -E8 -E37" />
    </vehicle>
    <vehicle depart="36.59" departSpeed="max" id="2.5" speedFactor="1.1614104217113654">
        <route edges="E6 -E4 -E3 842463330#1 -842463330#1 -E0 -E0.276 -264341313#0 -264341313#00 264341313#0 264341313#0.680 -E1 -E2" />
    </vehicle>
    <vehicle depart="36.92" departSpeed="max" id="13.8" speedFactor="1.160279385476751">
        <route edges="-E27 -E27.751 -E25 -E22 -E21 -E19 -E18 -E16 -E16.416 -E14 -E12 -E12.352 -E11" />
    </vehicle>
    <vehicle depart="37.86" departSpeed="max" id="0.17" speedFactor="1.0408996967874915">
        <route edges="E3 E4 E5 E8 E8.144 E8.328 -E23" />
    </vehicle>
    <vehicle depart="38.21" departSpeed="max" id="11.9" speedFactor="1.0500585713767379">
        <route edges="E26 -E24" />
    </vehicle>
    <vehicle depart="40.09" departSpeed="max" id="0.18" speedFactor="1.101552761202644">
        <route edges="E3 E4 E5 E8 E8.144 E8.328 E80 E9 -E11" />
    </vehicle>
    <vehicle depart="40.85" departSpeed="max" id="12.8" speedFactor="1.0931488708354582">
        <route edges="E24 -E26" />
    </vehicle>
    <vehicle depart="41.28" departSpeed="max" id="6.5" speedFactor="1.0227887141170415">
        <route edges="E10 -E9 -E8 -E37" />
    </vehicle>
    <vehicle depart="41.54" departSpeed="max" id="13.9" speedFactor="1.1145646967831193">
        <route edges="-E27 -E27.751 -E24" />
    </vehicle>
    <vehicle depart="42.31" departSpeed="max" id="0.19" speedFactor="1.126001916948317">
        <route edges="E3 E4 E5 E8 E8.144 E8.328 E80 E9 E12 E12.64 E14 E16 E16.94 E18 E19 E21 E22 E25 E27 E27.85 E30 E31 E31.112 E33 -E35" />
    </vehicle>
    <vehicle depart="42.45" departSpeed="max" id="11.10" speedFactor="1.0727721298242225">
        <route edges="E26 -E25 -E22 -E20" />
    </vehicle>
    <vehicle depart="43.90" departSpeed="max" id="2.6" speedFactor="1.088061770866278">
        <route edges="E6 E5 E8 E8.144 E8.328 E80 E9 E12 E12.64 E14 -E15" />
    </vehicle>
    <vehicle depart="44.54" departSpeed="max" id="0.20" speedFactor="1.0010508860234917">
        <route edges="E3 E4 E5 E8 E8.144 E8.328 -E37" />
    </vehicle>
    <vehicle depart="45.00" departSpeed="max" id="1.5" speedFactor="1.0517135931717014">
        <route edges="E7 -E6" />
    </vehicle>
    <vehicle depart="45.00" departSpeed="max" id="7.5" speedFactor="1.1615722460231643">
        <route edges="E15 E16 E16.94 E18 -E17" />
    </vehicle>
    <vehicle depart="45.00" departSpeed="max" id="8.5" speedFactor="1.0098168808377264">
        <route edges="E13 -E15" />
    </vehicle>
    <vehicle depart="45.95" departSpeed="max" id="12.9" speedFactor="1.0846660359816047">
        <route edges="E24 -E26" />
    </vehicle>
    <vehicle depart="46.15" departSpeed="max" id="13.10" speedFactor="1.0592066538666374">
        <route edges="-E27 -E27.751 -E25 -E22 -E20" />
    </vehicle>
    <vehicle depart="46.70" departSpeed="max" id="11.11" speedFactor="1.000010650013058">
        <route edges="E26 -E24" />
    </vehicle>
    <vehicle depart="46.77" departSpeed="max" id="0.21" speedFactor="1.032657458043224">
        <route edges="E3 E4 E5 E8 E8.144 E8.328 -E37" />
    </vehicle>
    <vehicle depart="48.99" departSpeed="max" id="0.22" speedFactor="1.1282720506250492">
        <route edges="E3 E4 E5 E8 E8.144 E8.328 -E23" />
    </vehicle>
    <vehicle depart="49.54" departSpeed="max" id="6.6" speedFactor="1.1551895934077805">
        <route edges="E10 -E11" />
    </vehicle>
    <vehicle depart="50.77" departSpeed="max" id="13.11" speedFactor="1.1404908954994804">
        <route edges="-E27 -E27.751 -E26" />
    </vehicle>
    <vehicle depart="50.94" departSpeed="max" id="11.12" speedFactor="1.0737281139767672">
        <route edges="E26 E27 E27.85 E30 -E32 -E48" />
    </vehicle>
    <vehicle depart="51.06" departSpeed="max" id="12.10" speedFactor="1.0444424096678835">
        <route edges="E24 E27 E27.85 E30 E31 E31.112 E33 -E34 -E47" />
    </vehicle>
    <vehicle depart="51.22" departSpeed="max" id="2.7" speedFactor="1.1818906635702855">
        <route edges="E6 E5 E8 E8.144 E8.328 -E37" />
    </vehicle>
    <vehicle depart="51.22" departSpeed="max" id="0.23" speedFactor="1.1051369815852157">
        <route edges="E3 E4 -E7" />
    </vehicle>
    <vehicle depart="53.45" departSpeed="max" id="0.24" speedFactor="1.0333027321877097">
        <route edges="E3 E4 E5 E8 E8.144 E8.328 -E23" />
    </vehicle>
    <vehicle depart="54.00" departSpeed="max" id="1.6" speedFactor="1.1143397486253876">
        <route edges="E7 -E6" />
    </vehicle>
    <vehicle depart="54.00" departSpeed="max" id="5.3" speedFactor="1.0691951503294872">
        <route edges="E11 E12 E12.64 E14 E16 E16.94 E18 -E17" />
    </vehicle>
    <vehicle depart="54.00" departSpeed="max" id="7.6" speedFactor="1.0320373261344926">
        <route edges="E15 E16 E16.94 E18 E19 E21 E22 E25 E27 E27.85 E30 -E28 -E29" />
    </vehicle>
    <vehicle depart="54.00" departSpeed="max" id="8.6" speedFactor="1.197389962605433">
        <route edges="E13 -E15" />
    </vehicle>
    <vehicle depart="55.19" departSpeed="max" id="11.13" speedFactor="1.192972600189962">
        <route edges="E26 -E24" />
    </vehicle>
    <vehicle depart="55.38" departSpeed="max" id="13.12" speedFactor="1.14420762054827">
        <route edges="-E27 -E27.751 -E25 -E22 -E20" />
    </vehicle>
    <vehicle depart="55.68" departSpeed="max" id="0.25" speedFactor="1.1431285563391254">
        <route edges="E3 E4 E5 E8 E8.144 E8.328 -E37" />
    </vehicle>
    <vehicle depart="56.17" departSpeed="max" id="12.11" speedFactor="1.0365633045876983">
        <route edges="E24 -E26" />
    </vehicle>
    <vehicle depart="57.79" departSpeed="max" id="6.7" speedFactor="1.18156003384268">
        <route edges="E10 -E11" />
    </vehicle>
    <vehicle depart="57.90" departSpeed="max" id="0.26" speedFactor="1.0542857145242388">
        <route edges="E3 E4 E5 E8 E8.144 E8.328 -E37" />
    </vehicle>
    <vehicle depart="58.54" departSpeed="max" id="2.8" speedFactor="1.1598183980422159">
        <route edges="E6 -E7" />
    </vehicle>
    <vehicle depart="59.43" departSpeed="max" id="11.14" speedFactor="1.1953524845102788">
        <route edges="E26 -E24" />
    </vehicle>
    <vehicle depart="60.00" departSpeed="max" id="13.13" speedFactor="1.0685376084892724">
        <route edges="-E27 -E27.751 -E25 -E22 -E21 -E19 -E18 -E16 -E16.416 -E14 -E12 -E12.352 -E10" />
    </vehicle>
    <vehicle depart="60.13" departSpeed="max" id="0.27" speedFactor="1.1874553099501493">
        <route edges="E3 E4 E5 E8 E8.144 E8.328 E80 E9 E12 E12.64 E14 E16 E16.94 E18 -E17" />
    </vehicle>
    <vehicle depart="61.27" departSpeed="max" id="12.12" speedFactor="1.062725958515995">
        <route edges="E24 -E26" />
    </vehicle>
    <vehicle depart="62.36" departSpeed="max" id="0.28" speedFactor="1.0544166998965048">
        <route edges="E3 E4 E5 E8 E8.144 E8.328 E80 E9 E12 E12.64 E14 E16 E16.94 E18 -E17" />
    </vehicle>
    <vehicle depart="63.00" departSpeed="max" id="1.7" speedFactor="1.1167271263581728">
        <route edges="E7 -E6" />
    </vehicle>
    <vehicle depart="63.00" departSpeed="max" id="7.7" speedFactor="1.1933638202227197">
        <route edges="E15 -E13" />
    </vehicle>
    <vehicle depart="63.00" departSpeed="max" id="8.7" speedFactor="1.0570509033382423">
        <route edges="E13 -E14 -E12 -E12.352 -E9 -E8 -E8.220 -E8.144 -E80 -E5 -E4 -E3 842463330#1 -842463330#1 -E0 -E0.276 -E1 -E2" />
    </vehicle>
    <vehicle depart="63.68" departSpeed="max" id="11.15" speedFactor="1.055988913748112">
        <route edges="E26 E27 E27.85 E30 -E28 -E29" />
    </vehicle>
    <vehicle depart="64.58" departSpeed="max" id="0.29" speedFactor="1.028072030032115">
        <route edges="E3 E4 E5 E8 E8.144 E8.328 -E23" />
    </vehicle>
    <vehicle depart="64.61" departSpeed="max" id="13.14" speedFactor="1.1847684791384612">
        <route edges="-E27 -E27.751 -E25 -E22 -E21 -E19 -E18 -E16 -E16.416 -E15" />
    </vehicle>
    <vehicle depart="65.85" departSpeed="max" id="2.9" speedFactor="1.1227798290486166">
        <route edges="E6 -E7" />
    </vehicle>
    <vehicle depart="66.05" departSpeed="max" id="6.8" speedFactor="1.1220865899740626">
        <route edges="E10 -E11" />
    </vehicle>
    <vehicle depart="66.38" departSpeed="max" id="12.13" speedFactor="1.1170086066025313">
        <route edges="E24 -E25 -E22 -E21 -E19 -E18 -E16 -E16.416 -E15" />
    </vehicle>
    <vehicle depart="66.81" departSpeed="max" id="0.30" speedFactor="1.0174410969846988">
        <route edges="E3 E4 E5 E8 E8.144 E8.328 E80 E9 E12 E12.64 E14 E16 E16.94 E18 -E17" />
    </vehicle>
    <vehicle depart="67.92" departSpeed="max" id="11.16" speedFactor="1.0995558902217644">
        <route edges="E26 E27 E27.85 E30 E31 E31.112 E33 E36 E36.81" />
    </vehicle>
    <vehicle depart="69.04" departSpeed="max" id="0.31" speedFactor="1.0134887704773934">
        <route edges="E3 E4 -E7" />
    </vehicle>
    <vehicle depart="69.23" departSpeed="max" id="13.15" speedFactor="1.0352630929900206">
        <route edges="-E27 -E27.751 -E25 -E22 -E20" />
    </vehicle>
    <vehicle depart="71.26" departSpeed="max" id="0.32" speedFactor="1.0514671938011497">
        <route edges="E3 E4 E5 E8 E8.144 E8.328 E80 E9 E12 E12.64 E14 E16 E16.94 E18 E19 E21 -E20" />
    </vehicle>
    <vehicle depart="71.48" departSpeed="max" id="12.14" speedFactor="1.1045824542582194">
        <route edges="E24 -E25 -E22 -E21 -E19 -E17" />
    </vehicle>
    <vehicle depart="72.00" departSpeed="max" id="1.8" speedFactor="1.1782665907381429">
        <route edges="E7 -E4 -E3 -E0 -E0.276 -E1 -E2" />
    </vehicle>
    <vehicle depart="72.00" departSpeed="max" id="10.2" speedFactor="1.0478591024744648">
        <route edges="E20 -E21 -E19 -E17" />
    </vehicle>
    <vehicle depart="72.00" departSpeed="max" id="3.2" speedFactor="1.1992880983407272">
        <route edges="E23 -E37" />
    </vehicle>
    <vehicle depart="72.00" departSpeed="max" id="4.2" speedFactor="1.1692598884484067">
        <route edges="E37 -E8.220 -E8.144 -E80 -E5 -E4 -E3 842463330#1 -842463330#1 E3 E4 E5 E8 E8.144 E8.328 -E23" />
    </vehicle>
    <vehicle depart="72.00" departSpeed="max" id="5.4" speedFactor="1.0103359316566871">
        <route edges="E11 E12 E12.64 E14 E16 E16.94 E18 E19 E21 -E20" />
    </vehicle>
    <vehicle depart="72.00" departSpeed="max" id="7.8" speedFactor="1.1385042525099096">
        <route edges="E15 -E13" />
    </vehicle>
    <vehicle depart="72.00" departSpeed="max" id="8.8" speedFactor="1.193714731140539">
        <route edges="E13 -E15" />
    </vehicle>
    <vehicle depart="72.00" departSpeed="max" id="9.2" speedFactor="1.0075003997358591">
        <route edges="E17 -E18 -E16 -E16.416 -E14 -E12 -E12.352 -E9 -E8 -E8.220 -E8.144 -E80 -E5 -E4 -E3 842463330#1 -842463330#1 E3 E4 E5 E8 E8.144 E8.328 E80 E9 -E11" />
    </vehicle>
    <vehicle depart="72.17" departSpeed="max" id="11.17" speedFactor="1.0847104679669786">
        <route edges="E26 -E25 -E22 -E20" />
    </vehicle>
    <vehicle depart="73.17" departSpeed="max" id="2.10" speedFactor="1.055605695206202">
        <route edges="E6 -E7" />
    </vehicle>
    <vehicle depart="73.49" departSpeed="max" id="0.33" speedFactor="1.0357611826345512">
        <route edges="E3 E4 E5 E8 E8.144 E8.328 E80 E9 E12 E12.64 E14 -E13" />
    </vehicle>
    <vehicle depart="73.84" departSpeed="max" id="13.16" speedFactor="1.0481612848554986">
        <route edges="-E27 -E27.751 -E25 -E22 -E21 -E19 -E17" />
    </vehicle>
    <vehicle depart="74.30" departSpeed="max" id="6.9" speedFactor="1.061328010821844">
        <route edges="E10 -E9 -E8 -E8.220 -E8.144 -E80 -E5 -E7" />
    </vehicle>
    <vehicle depart="75.72" departSpeed="max" id="0.34" speedFactor="1.05461065485898">
        <route edges="E3 E4 E5 E8 E8.144 E8.328 -E23" />
    </vehicle>
    <vehicle depart="76.41" departSpeed="max" id="11.18" speedFactor="1.0696897272422965">
        <route edges="E26 -E25 -E22 -E21 -E19 -E18 -E16 -E16.416 -E14 -E12 -E12.352 -E9 -E8 -E8.220 -E8.144 -E80 -E5 -E4 -E3 -E0 -E0.276 -E49" />
    </vehicle>
    <vehicle depart="76.59" departSpeed="max" id="12.15" speedFactor="1.1190721362622005">
        <route edges="E24 -E25 -E22 -E21 -E19 -E17" />
    </vehicle>
    <vehicle depart="77.95" departSpeed="max" id="0.35" speedFactor="1.1750562901519006">
        <route edges="E3 E4 E5 E8 E8.144 E8.328 -E23" />
    </vehicle>
    <vehicle depart="78.46" departSpeed="max" id="13.17" speedFactor="1.0852811956507498">
        <route edges="-E27 -E27.751 -E25 -E22 -E20" />
    </vehicle>
    <vehicle depart="80.17" departSpeed="max" id="0.36" speedFactor="1.0200350904283935">
        <route edges="E3 E4 E5 E8 E8.144 E8.328 -E23" />
    </vehicle>
    <vehicle depart="80.49" departSpeed="max" id="2.11" speedFactor="1.0126356441009348">
        <route edges="E6 E5 E8 E8.144 E8.328 E80 E9 E12 E12.64 E14 E16 E16.94 E18 -E17" />
    </vehicle>
    <vehicle depart="80.66" departSpeed="max" id="11.19" speedFactor="1.1517644712003936">
        <route edges="E26 -E24" />
    </vehicle>
    <vehicle depart="81.00" departSpeed="max" id="1.9" speedFactor="1.1031856370471071">
        <route edges="E7 E5 E8 E8.144 E8.328 -E37" />
    </vehicle>
    <vehicle depart="81.00" departSpeed="max" id="7.9" speedFactor="1.104670010572777">
        <route edges="E15 -E13" />
    </vehicle>
    <vehicle depart="81.00" departSpeed="max" id="8.9" speedFactor="1.1611130032940784">
        <route edges="E13 E16 E16.94 E18 -E17" />
    </vehicle>
    <vehicle depart="81.70" departSpeed="max" id="12.16" speedFactor="1.0247192480165128">
        <route edges="E24 -E26" />
    </vehicle>
    <vehicle depart="82.40" departSpeed="max" id="0.37" speedFactor="1.1202647746649665">
        <route edges="E3 E4 -E6" />
    </vehicle>
    <vehicle depart="82.56" departSpeed="max" id="6.10" speedFactor="1.067598044234813">
        <route edges="E10 E12 E12.64 E14 E16 E16.94 E18 -E17" />
    </vehicle>
    <vehicle depart="83.07" departSpeed="max" id="13.18" speedFactor="1.1548226085376783">
        <route edges="-E27 -E27.751 -E25 -E22 -E20" />
    </vehicle>
    <vehicle depart="84.63" departSpeed="max" id="0.38" speedFactor="1.132678368216785">
        <route edges="E3 E4 E5 E8 E8.144 E8.328 -E37" />
    </vehicle>
    <vehicle depart="84.90" departSpeed="max" id="11.20" speedFactor="1.1949728760907896">
        <route edges="E26 -E24" />
    </vehicle>
    <vehicle depart="86.80" departSpeed="max" id="12.17" speedFactor="1.0677676458698326">
        <route edges="E24 E27 E27.85 E30 E31 E31.112 E33 -E34 -E47" />
    </vehicle>
    <vehicle depart="86.85" departSpeed="max" id="0.39" speedFactor="1.0850336015438438">
        <route edges="E3 E4 E5 E8 E8.144 E8.328 E80 E9 -E10" />
    </vehicle>
    <vehicle depart="87.69" departSpeed="max" id="13.19" speedFactor="1.1865796684712793">
        <route edges="-E27 -E27.751 -E26" />
    </vehicle>
    <vehicle depart="87.80" departSpeed="max" id="2.12" speedFactor="1.095081888744448">
        <route edges="E6 E5 E8 E8.144 E8.328 E80 E9 E12 E12.64 E14 E16 E16.94 E18 -E17" />
    </vehicle>
    <vehicle depart="89.08" departSpeed="max" id="0.40" speedFactor="1.1680416448027553">
        <route edges="E3 E4 E5 E8 E8.144 E8.328 -E23" />
    </vehicle>
    <vehicle depart="89.15" departSpeed="max" id="11.21" speedFactor="1.1940630124952898">
        <route edges="E26 E27 E27.85 E30 -E28 -E29" />
    </vehicle>
    <vehicle depart="90.00" departSpeed="max" id="1.10" speedFactor="1.0085785048813458">
        <route edges="E7 -E6" />
    </vehicle>
    <vehicle depart="90.00" departSpeed="max" id="5.5" speedFactor="1.0370257603137516">
        <route edges="E11 -E10" />
    </vehicle>
    <vehicle depart="90.00" departSpeed="max" id="7.10" speedFactor="1.1070647992747338">
        <route edges="E15 -E13" />
    </vehicle>
    <vehicle depart="90.00" departSpeed="max" id="8.10" speedFactor="1.0162833614547868">
        <route edges="E13 -E15" />
    </vehicle>
    <vehicle depart="90.82" departSpeed="max" id="6.11" speedFactor="1.186224083390772">
        <route edges="E10 -E9 -E8 -E23" />
    </vehicle>
    <vehicle depart="91.31" departSpeed="max" id="0.41" speedFactor="1.1540192164367735">
        <route edges="E3 E4 E5 E8 E8.144 E8.328 E80 E9 E12 E12.64 E14 E16 E16.94 E18 E19 E21 -E20" />
    </vehicle>
    <vehicle depart="91.91" departSpeed="max" id="12.18" speedFactor="1.0460339883194552">
        <route edges="E24 -E25 -E22 -E20" />
    </vehicle>
    <vehicle depart="92.30" departSpeed="max" id="13.20" speedFactor="1.0829708204279713">
        <route edges="-E27 -E27.751 -E25 -E22 -E20" />
    </vehicle>
    <vehicle depart="93.39" departSpeed="max" id="11.22" speedFactor="1.0399048860623277">
        <route edges="E26 E27 E27.85 E30 E31 E31.112 E33 E36 E36.81" />
    </vehicle>
    <vehicle depart="93.53" departSpeed="max" id="0.42" speedFactor="1.1490829382860532">
        <route edges="E3 E4 E5 E8 E8.144 E8.328 -E37" />
    </vehicle>